MODEL 1
REMARK VINA RESULT:       0.0      0.000      0.000
REMARK  4 active torsions:
REMARK  status: ('A' for Active; 'I' for Inactive)
REMARK    1  A    between atoms: C_4  and  N_5 
REMARK    2  A    between atoms: C_7  and  S_8 
REMARK    3  A    between atoms: S_8  and  C_9 
REMARK    4  A    between atoms: C_9  and  C_10 
ROOT
HETATM    1  C   UNL     1      -3.595   0.938   5.957  1.00  0.00     0.070 C 
HETATM    2  C   UNL     1      -3.379   2.415   5.807  1.00  0.00     0.037 A 
HETATM    3  C   UNL     1      -4.556   3.337   5.697  1.00  0.00     0.076 A 
HETATM    4  C   UNL     1      -4.341   4.814   5.547  1.00  0.00     0.126 A 
HETATM    5  N   UNL     1      -2.947   5.368   5.505  1.00  0.00    -0.206 NA
HETATM    6  C   UNL     1      -1.770   4.446   5.615  1.00  0.00     0.190 A 
HETATM    7  N   UNL     1      -1.986   2.969   5.765  1.00  0.00    -0.228 NA
ENDROOT
BRANCH   6   8
HETATM    8  S   UNL     1      -0.377   5.000   5.574  1.00  0.00    -0.086 SA
BRANCH   8   9
HETATM    9  C   UNL     1       0.458   4.840   4.337  1.00  0.00     0.121 C 
BRANCH   9  10
HETATM   10  C   UNL     1      -0.201   4.764   2.992  1.00  0.00    -0.048 A 
HETATM   11  C   UNL     1      -0.741   6.007   2.350  1.00  0.00     0.011 A 
HETATM   12  C   UNL     1      -1.400   5.931   1.005  1.00  0.00     0.043 A 
HETATM   13  C   UNL     1      -1.520   4.611   0.302  1.00  0.00     0.116 A 
HETATM   14  F   UNL     1      -2.179   4.535  -1.043  1.00  0.00    -0.206 F 
HETATM   15  C   UNL     1      -0.981   3.368   0.944  1.00  0.00     0.043 A 
HETATM   16  C   UNL     1      -0.321   3.444   2.289  1.00  0.00     0.011 A 
ENDBRANCH   9  10
ENDBRANCH   8   9
ENDBRANCH   6   8
BRANCH   4  17
HETATM   17  N   UNL     1      -5.518   5.737   5.437  1.00  0.00    -0.384 N 
HETATM   18  H   UNL     1      -5.745   6.336   6.184  1.00  0.00     0.157 HD
HETATM   19  H   UNL     1      -6.065   5.743   4.618  1.00  0.00     0.157 HD
ENDBRANCH   4  17
TORSDOF 4
ENDMDL
MODEL 2
REMARK VINA RESULT:       0.0     10.865     12.305
REMARK  4 active torsions:
REMARK  status: ('A' for Active; 'I' for Inactive)
REMARK    1  A    between atoms: C_4  and  N_5 
REMARK    2  A    between atoms: C_7  and  S_8 
REMARK    3  A    between atoms: S_8  and  C_9 
REMARK    4  A    between atoms: C_9  and  C_10 
ROOT
HETATM    1  C   UNL     1       5.255  -2.276   4.776  1.00  0.00     0.070 C 
HETATM    2  C   UNL     1       6.677  -2.245   4.300  1.00  0.00     0.037 A 
HETATM    3  C   UNL     1       7.664  -1.316   4.944  1.00  0.00     0.076 A 
HETATM    4  C   UNL     1       9.086  -1.286   4.467  1.00  0.00     0.126 A 
HETATM    5  N   UNL     1       9.521  -2.183   3.347  1.00  0.00    -0.206 NA
HETATM    6  C   UNL     1       8.534  -3.112   2.703  1.00  0.00     0.190 A 
HETATM    7  N   UNL     1       7.112  -3.142   3.180  1.00  0.00    -0.228 NA
ENDROOT
BRANCH   6   8
HETATM    8  S   UNL     1       8.970  -4.009   1.583  1.00  0.00    -0.086 SA
BRANCH   8   9
HETATM    9  C   UNL     1       8.579  -3.689   0.171  1.00  0.00     0.121 C 
BRANCH   9  10
HETATM   10  C   UNL     1       8.372  -2.263  -0.245  1.00  0.00    -0.048 A 
HETATM   11  C   UNL     1       6.983  -1.731  -0.436  1.00  0.00     0.011 A 
HETATM   12  C   UNL     1       6.776  -0.305  -0.852  1.00  0.00     0.043 A 
HETATM   13  C   UNL     1       7.959   0.590  -1.078  1.00  0.00     0.116 A 
HETATM   14  F   UNL     1       7.753   2.016  -1.494  1.00  0.00    -0.206 F 
HETATM   15  C   UNL     1       9.349   0.058  -0.887  1.00  0.00     0.043 A 
HETATM   16  C   UNL     1       9.555  -1.368  -0.471  1.00  0.00     0.011 A 
ENDBRANCH   9  10
ENDBRANCH   8   9
ENDBRANCH   6   8
BRANCH   4  17
HETATM   17  N   UNL     1      10.072  -0.357   5.111  1.00  0.00    -0.384 N 
HETATM   18  H   UNL     1       9.991   0.615   4.981  1.00  0.00     0.157 HD
HETATM   19  H   UNL     1      10.802  -0.720   5.664  1.00  0.00     0.157 HD
ENDBRANCH   4  17
TORSDOF 4
ENDMDL
MODEL 3
REMARK VINA RESULT:       0.0     15.545     17.332
REMARK  4 active torsions:
REMARK  status: ('A' for Active; 'I' for Inactive)
REMARK    1  A    between atoms: C_4  and  N_5 
REMARK    2  A    between atoms: C_7  and  S_8 
REMARK    3  A    between atoms: S_8  and  C_9 
REMARK    4  A    between atoms: C_9  and  C_10 
ROOT
HETATM    1  C   UNL     1      10.901  -9.819  -4.036  1.00  0.00     0.070 C 
HETATM    2  C   UNL     1      10.393  -8.709  -3.164  1.00  0.00     0.037 A 
HETATM    3  C   UNL     1      11.323  -8.019  -2.211  1.00  0.00     0.076 A 
HETATM    4  C   UNL     1      10.814  -6.909  -1.340  1.00  0.00     0.126 A 
HETATM    5  N   UNL     1       9.377  -6.489  -1.421  1.00  0.00    -0.206 NA
HETATM    6  C   UNL     1       8.447  -7.180  -2.374  1.00  0.00     0.190 A 
HETATM    7  N   UNL     1       8.955  -8.290  -3.246  1.00  0.00    -0.228 NA
ENDROOT
BRANCH   6   8
HETATM    8  S   UNL     1       7.009  -6.761  -2.456  1.00  0.00    -0.086 SA
BRANCH   8   9
HETATM    9  C   UNL     1       6.530  -5.948  -3.622  1.00  0.00     0.121 C 
BRANCH   9  10
HETATM   10  C   UNL     1       7.471  -5.014  -4.323  1.00  0.00    -0.048 A 
HETATM   11  C   UNL     1       8.043  -5.388  -5.658  1.00  0.00     0.011 A 
HETATM   12  C   UNL     1       8.984  -4.454  -6.359  1.00  0.00     0.043 A 
HETATM   13  C   UNL     1       9.355  -3.146  -5.724  1.00  0.00     0.116 A 
HETATM   14  F   UNL     1      10.296  -2.212  -6.425  1.00  0.00    -0.206 F 
HETATM   15  C   UNL     1       8.783  -2.773  -4.388  1.00  0.00     0.043 A 
HETATM   16  C   UNL     1       7.842  -3.707  -3.688  1.00  0.00     0.011 A 
ENDBRANCH   9  10
ENDBRANCH   8   9
ENDBRANCH   6   8
BRANCH   4  17
HETATM   17  N   UNL     1      11.744  -6.218  -0.386  1.00  0.00    -0.384 N 
HETATM   18  H   UNL     1      12.040  -6.677   0.432  1.00  0.00     0.157 HD
HETATM   19  H   UNL     1      12.059  -5.305  -0.579  1.00  0.00     0.157 HD
ENDBRANCH   4  17
TORSDOF 4
ENDMDL
MODEL 4
REMARK VINA RESULT:       0.0      5.038      7.291
REMARK  4 active torsions:
REMARK  status: ('A' for Active; 'I' for Inactive)
REMARK    1  A    between atoms: C_4  and  N_5 
REMARK    2  A    between atoms: C_7  and  S_8 
REMARK    3  A    between atoms: S_8  and  C_9 
REMARK    4  A    between atoms: C_9  and  C_10 
ROOT
HETATM    1  C   UNL     1       1.410   2.211  -2.467  1.00  0.00     0.070 C 
HETATM    2  C   UNL     1       0.468   3.205  -1.855  1.00  0.00     0.037 A 
HETATM    3  C   UNL     1       0.639   3.616  -0.422  1.00  0.00     0.076 A 
HETATM    4  C   UNL     1      -0.303   4.610   0.190  1.00  0.00     0.126 A 
HETATM    5  N   UNL     1      -1.416   5.192  -0.630  1.00  0.00    -0.206 NA
HETATM    6  C   UNL     1      -1.587   4.781  -2.062  1.00  0.00     0.190 A 
HETATM    7  N   UNL     1      -0.645   3.787  -2.674  1.00  0.00    -0.228 NA
ENDROOT
BRANCH   6   8
HETATM    8  S   UNL     1      -2.700   5.363  -2.882  1.00  0.00    -0.086 SA
BRANCH   8   9
HETATM    9  C   UNL     1      -3.912   4.536  -3.196  1.00  0.00     0.121 C 
BRANCH   9  10
HETATM   10  C   UNL     1      -4.361   3.470  -2.241  1.00  0.00    -0.048 A 
HETATM   11  C   UNL     1      -4.105   2.026  -2.555  1.00  0.00     0.011 A 
HETATM   12  C   UNL     1      -4.554   0.960  -1.600  1.00  0.00     0.043 A 
HETATM   13  C   UNL     1      -5.259   1.338  -0.331  1.00  0.00     0.116 A 
HETATM   14  F   UNL     1      -5.708   0.272   0.623  1.00  0.00    -0.206 F 
HETATM   15  C   UNL     1      -5.515   2.783  -0.018  1.00  0.00     0.043 A 
HETATM   16  C   UNL     1      -5.066   3.849  -0.972  1.00  0.00     0.011 A 
ENDBRANCH   9  10
ENDBRANCH   8   9
ENDBRANCH   6   8
BRANCH   4  17
HETATM   17  N   UNL     1      -0.132   5.021   1.622  1.00  0.00    -0.384 N 
HETATM   18  H   UNL     1      -0.702   4.624   2.320  1.00  0.00     0.157 HD
HETATM   19  H   UNL     1       0.550   5.688   1.865  1.00  0.00     0.157 HD
ENDBRANCH   4  17
TORSDOF 4
ENDMDL
MODEL 5
REMARK VINA RESULT:       0.0      5.559      7.562
REMARK  4 active torsions:
REMARK  status: ('A' for Active; 'I' for Inactive)
REMARK    1  A    between atoms: C_4  and  N_5 
REMARK    2  A    between atoms: C_7  and  S_8 
REMARK    3  A    between atoms: S_8  and  C_9 
REMARK    4  A    between atoms: C_9  and  C_10 
ROOT
HETATM    1  C   UNL     1       0.538   4.779  -2.769  1.00  0.00     0.070 C 
HETATM    2  C   UNL     1      -0.109   5.845  -1.936  1.00  0.00     0.037 A 
HETATM    3  C   UNL     1       0.104   5.869  -0.451  1.00  0.00     0.076 A 
HETATM    4  C   UNL     1      -0.542   6.935   0.382  1.00  0.00     0.126 A 
HETATM    5  N   UNL     1      -1.402   7.978  -0.269  1.00  0.00    -0.206 NA
HETATM    6  C   UNL     1      -1.615   7.954  -1.754  1.00  0.00     0.190 A 
HETATM    7  N   UNL     1      -0.968   6.888  -2.587  1.00  0.00    -0.228 NA
ENDROOT
BRANCH   6   8
HETATM    8  S   UNL     1      -2.474   8.997  -2.405  1.00  0.00    -0.086 SA
BRANCH   8   9
HETATM    9  C   UNL     1      -3.855   8.645  -2.873  1.00  0.00     0.121 C 
BRANCH   9  10
HETATM   10  C   UNL     1      -4.635   7.575  -2.170  1.00  0.00    -0.048 A 
HETATM   11  C   UNL     1      -4.789   6.222  -2.800  1.00  0.00     0.011 A 
HETATM   12  C   UNL     1      -5.569   5.151  -2.097  1.00  0.00     0.043 A 
HETATM   13  C   UNL     1      -6.196   5.433  -0.763  1.00  0.00     0.116 A 
HETATM   14  F   UNL     1      -6.976   4.362  -0.060  1.00  0.00    -0.206 F 
HETATM   15  C   UNL     1      -6.043   6.786  -0.133  1.00  0.00     0.043 A 
HETATM   16  C   UNL     1      -5.262   7.856  -0.837  1.00  0.00     0.011 A 
ENDBRANCH   9  10
ENDBRANCH   8   9
ENDBRANCH   6   8
BRANCH   4  17
HETATM   17  N   UNL     1      -0.329   6.959   1.867  1.00  0.00    -0.384 N 
HETATM   18  H   UNL     1      -1.021   6.603   2.469  1.00  0.00     0.157 HD
HETATM   19  H   UNL     1       0.503   7.331   2.239  1.00  0.00     0.157 HD
ENDBRANCH   4  17
TORSDOF 4
ENDMDL
MODEL 6
REMARK VINA RESULT:       0.0     10.568     12.368
REMARK  4 active torsions:
REMARK  status: ('A' for Active; 'I' for Inactive)
REMARK    1  A    between atoms: C_4  and  N_5 
REMARK    2  A    between atoms: C_7  and  S_8 
REMARK    3  A    between atoms: S_8  and  C_9 
REMARK    4  A    between atoms: C_9  and  C_10 
ROOT
HETATM    1  C   UNL     1      -0.663  -6.765  -0.922  1.00  0.00     0.070 C 
HETATM    2  C   UNL     1       0.743  -6.701  -1.441  1.00  0.00     0.037 A 
HETATM    3  C   UNL     1       1.811  -7.552  -0.820  1.00  0.00     0.076 A 
HETATM    4  C   UNL     1       3.217  -7.488  -1.338  1.00  0.00     0.126 A 
HETATM    5  N   UNL     1       3.555  -6.573  -2.478  1.00  0.00    -0.206 NA
HETATM    6  C   UNL     1       2.488  -5.722  -3.099  1.00  0.00     0.190 A 
HETATM    7  N   UNL     1       1.082  -5.786  -2.580  1.00  0.00    -0.228 NA
ENDROOT
BRANCH   6   8
HETATM    8  S   UNL     1       2.826  -4.808  -4.238  1.00  0.00    -0.086 SA
BRANCH   8   9
HETATM    9  C   UNL     1       2.935  -3.330  -4.007  1.00  0.00     0.121 C 
BRANCH   9  10
HETATM   10  C   UNL     1       3.368  -2.810  -2.668  1.00  0.00    -0.048 A 
HETATM   11  C   UNL     1       2.358  -2.218  -1.731  1.00  0.00     0.011 A 
HETATM   12  C   UNL     1       2.792  -1.698  -0.392  1.00  0.00     0.043 A 
HETATM   13  C   UNL     1       4.236  -1.771   0.009  1.00  0.00     0.116 A 
HETATM   14  F   UNL     1       4.669  -1.252   1.348  1.00  0.00    -0.206 F 
HETATM   15  C   UNL     1       5.245  -2.363  -0.928  1.00  0.00     0.043 A 
HETATM   16  C   UNL     1       4.812  -2.883  -2.267  1.00  0.00     0.011 A 
ENDBRANCH   9  10
ENDBRANCH   8   9
ENDBRANCH   6   8
BRANCH   4  17
HETATM   17  N   UNL     1       4.285  -8.339  -0.717  1.00  0.00    -0.384 N 
HETATM   18  H   UNL     1       4.628  -9.126  -1.197  1.00  0.00     0.157 HD
HETATM   19  H   UNL     1       4.643  -8.110   0.172  1.00  0.00     0.157 HD
ENDBRANCH   4  17
TORSDOF 4
ENDMDL
MODEL 7
REMARK VINA RESULT:       0.0      7.705      9.170
REMARK  4 active torsions:
REMARK  status: ('A' for Active; 'I' for Inactive)
REMARK    1  A    between atoms: C_4  and  N_5 
REMARK    2  A    between atoms: C_7  and  S_8 
REMARK    3  A    between atoms: S_8  and  C_9 
REMARK    4  A    between atoms: C_9  and  C_10 
ROOT
HETATM    1  C   UNL     1       1.294  -5.406   2.971  1.00  0.00     0.070 C 
HETATM    2  C   UNL     1       2.464  -4.668   3.551  1.00  0.00     0.037 A 
HETATM    3  C   UNL     1       2.500  -4.352   5.017  1.00  0.00     0.076 A 
HETATM    4  C   UNL     1       3.669  -3.614   5.596  1.00  0.00     0.126 A 
HETATM    5  N   UNL     1       4.804  -3.191   4.710  1.00  0.00    -0.206 NA
HETATM    6  C   UNL     1       4.768  -3.508   3.245  1.00  0.00     0.190 A 
HETATM    7  N   UNL     1       3.598  -4.246   2.665  1.00  0.00    -0.228 NA
ENDROOT
BRANCH   6   8
HETATM    8  S   UNL     1       5.902  -3.085   2.359  1.00  0.00    -0.086 SA
BRANCH   8   9
HETATM    9  C   UNL     1       5.735  -1.919   1.430  1.00  0.00     0.121 C 
BRANCH   9  10
HETATM   10  C   UNL     1       4.805  -0.799   1.793  1.00  0.00    -0.048 A 
HETATM   11  C   UNL     1       3.470  -0.685   1.119  1.00  0.00     0.011 A 
HETATM   12  C   UNL     1       2.540   0.435   1.482  1.00  0.00     0.043 A 
HETATM   13  C   UNL     1       2.945   1.440   2.519  1.00  0.00     0.116 A 
HETATM   14  F   UNL     1       2.015   2.559   2.881  1.00  0.00    -0.206 F 
HETATM   15  C   UNL     1       4.280   1.325   3.193  1.00  0.00     0.043 A 
HETATM   16  C   UNL     1       5.210   0.206   2.830  1.00  0.00     0.011 A 
ENDBRANCH   9  10
ENDBRANCH   8   9
ENDBRANCH   6   8
BRANCH   4  17
HETATM   17  N   UNL     1       3.705  -3.297   7.062  1.00  0.00    -0.384 N 
HETATM   18  H   UNL     1       2.904  -2.941   7.508  1.00  0.00     0.157 HD
HETATM   19  H   UNL     1       4.530  -3.446   7.578  1.00  0.00     0.157 HD
ENDBRANCH   4  17
TORSDOF 4
ENDMDL
MODEL 8
REMARK VINA RESULT:       0.0     11.747     13.432
REMARK  4 active torsions:
REMARK  status: ('A' for Active; 'I' for Inactive)
REMARK    1  A    between atoms: C_4  and  N_5 
REMARK    2  A    between atoms: C_7  and  S_8 
REMARK    3  A    between atoms: S_8  and  C_9 
REMARK    4  A    between atoms: C_9  and  C_10 
ROOT
HETATM    1  C   UNL     1      -4.462  -4.414  -5.897  1.00  0.00     0.070 C 
HETATM    2  C   UNL     1      -3.115  -4.995  -5.583  1.00  0.00     0.037 A 
HETATM    3  C   UNL     1      -2.715  -6.318  -6.167  1.00  0.00     0.076 A 
HETATM    4  C   UNL     1      -1.368  -6.899  -5.854  1.00  0.00     0.126 A 
HETATM    5  N   UNL     1      -0.422  -6.158  -4.956  1.00  0.00    -0.206 NA
HETATM    6  C   UNL     1      -0.822  -4.836  -4.372  1.00  0.00     0.190 A 
HETATM    7  N   UNL     1      -2.169  -4.254  -4.686  1.00  0.00    -0.228 NA
ENDROOT
BRANCH   6   8
HETATM    8  S   UNL     1       0.125  -4.095  -3.475  1.00  0.00    -0.086 SA
BRANCH   8   9
HETATM    9  C   UNL     1       0.858  -2.892  -3.989  1.00  0.00     0.121 C 
BRANCH   9  10
HETATM   10  C   UNL     1       1.204  -2.789  -5.445  1.00  0.00    -0.048 A 
HETATM   11  C   UNL     1       0.419  -1.876  -6.339  1.00  0.00     0.011 A 
HETATM   12  C   UNL     1       0.764  -1.773  -7.795  1.00  0.00     0.043 A 
HETATM   13  C   UNL     1       1.895  -2.584  -8.357  1.00  0.00     0.116 A 
HETATM   14  F   UNL     1       2.240  -2.481  -9.813  1.00  0.00    -0.206 F 
HETATM   15  C   UNL     1       2.679  -3.497  -7.462  1.00  0.00     0.043 A 
HETATM   16  C   UNL     1       2.334  -3.600  -6.006  1.00  0.00     0.011 A 
ENDBRANCH   9  10
ENDBRANCH   8   9
ENDBRANCH   6   8
BRANCH   4  17
HETATM   17  N   UNL     1      -0.968  -8.222  -6.437  1.00  0.00    -0.384 N 
HETATM   18  H   UNL     1      -1.293  -8.485  -7.328  1.00  0.00     0.157 HD
HETATM   19  H   UNL     1      -0.380  -8.827  -5.930  1.00  0.00     0.157 HD
ENDBRANCH   4  17
TORSDOF 4
ENDMDL
MODEL 9
REMARK VINA RESULT:       0.0      8.806     10.847
REMARK  4 active torsions:
REMARK  status: ('A' for Active; 'I' for Inactive)
REMARK    1  A    between atoms: C_4  and  N_5 
REMARK    2  A    between atoms: C_7  and  S_8 
REMARK    3  A    between atoms: S_8  and  C_9 
REMARK    4  A    between atoms: C_9  and  C_10 
ROOT
HETATM    1  C   UNL     1       6.171   5.231  -4.955  1.00  0.00     0.070 C 
HETATM    2  C   UNL     1       5.837   4.714  -3.587  1.00  0.00     0.037 A 
HETATM    3  C   UNL     1       4.492   4.995  -2.986  1.00  0.00     0.076 A 
HETATM    4  C   UNL     1       4.158   4.477  -1.618  1.00  0.00     0.126 A 
HETATM    5  N   UNL     1       5.170   3.679  -0.851  1.00  0.00    -0.206 NA
HETATM    6  C   UNL     1       6.516   3.399  -1.451  1.00  0.00     0.190 A 
HETATM    7  N   UNL     1       6.849   3.916  -2.819  1.00  0.00    -0.228 NA
ENDROOT
BRANCH   6   8
HETATM    8  S   UNL     1       7.528   2.601  -0.684  1.00  0.00    -0.086 SA
BRANCH   8   9
HETATM    9  C   UNL     1       7.803   1.176  -1.063  1.00  0.00     0.121 C 
BRANCH   9  10
HETATM   10  C   UNL     1       6.720   0.341  -1.679  1.00  0.00    -0.048 A 
HETATM   11  C   UNL     1       6.745   0.047  -3.150  1.00  0.00     0.011 A 
HETATM   12  C   UNL     1       5.662  -0.787  -3.767  1.00  0.00     0.043 A 
HETATM   13  C   UNL     1       4.554  -1.328  -2.913  1.00  0.00     0.116 A 
HETATM   14  F   UNL     1       3.471  -2.162  -3.530  1.00  0.00    -0.206 F 
HETATM   15  C   UNL     1       4.528  -1.034  -1.442  1.00  0.00     0.043 A 
HETATM   16  C   UNL     1       5.611  -0.199  -0.826  1.00  0.00     0.011 A 
ENDBRANCH   9  10
ENDBRANCH   8   9
ENDBRANCH   6   8
BRANCH   4  17
HETATM   17  N   UNL     1       2.813   4.758  -1.018  1.00  0.00    -0.384 N 
HETATM   18  H   UNL     1       2.623   4.493  -0.089  1.00  0.00     0.157 HD
HETATM   19  H   UNL     1       2.119   5.208  -1.552  1.00  0.00     0.157 HD
ENDBRANCH   4  17
TORSDOF 4
ENDMDL
