MODEL 1
REMARK VINA RESULT:       0.0      0.000      0.000
REMARK  5 active torsions:
REMARK  status: ('A' for Active; 'I' for Inactive)
REMARK       I    between atoms: C_2  and  N_4 
REMARK    1  A    between atoms: N_4  and  C_5 
REMARK    2  A    between atoms: C_8  and  N_9 
REMARK       I    between atoms: N_9  and  C_10 
REMARK    3  A    between atoms: C_10  and  C_12 
REMARK    4  A    between atoms: C_20  and  N_21 
REMARK       I    between atoms: N_21  and  C_22 
REMARK    5  A    between atoms: C_22  and  C_24 
ROOT
HETATM    1  C   UNL     1      -6.913   1.188   0.706  1.00  0.00     0.061 A 
HETATM    2  C   UNL     1      -8.198   0.591   0.212  1.00  0.00     0.034 A 
HETATM    3  C   UNL     1      -8.432  -0.886   0.327  1.00  0.00     0.032 A 
HETATM    4  C   UNL     1      -7.383  -1.766   0.938  1.00  0.00     0.036 A 
HETATM    5  C   UNL     1      -6.098  -1.170   1.433  1.00  0.00     0.061 A 
HETATM    6  C   UNL     1      -5.864   0.307   1.317  1.00  0.00     0.063 A 
ENDROOT
BRANCH   4   7
HETATM    7  N   UNL     1      -7.617  -3.243   1.054  1.00  0.00    -0.334 N 
HETATM    8  C   UNL     1      -8.155  -3.820   2.330  1.00  0.00     0.189 C 
HETATM    9  O   UNL     1      -8.458  -2.919   3.490  1.00  0.00    -0.171 OA
HETATM   10  H   UNL     1      -7.418  -3.834   0.291  1.00  0.00     0.168 HD
BRANCH   8  11
HETATM   11  C   UNL     1      -8.390  -5.297   2.446  1.00  0.00     0.018 A 
HETATM   12  C   UNL     1      -9.524  -5.813   3.281  1.00  0.00     0.019 A 
HETATM   13  C   UNL     1      -9.759  -7.290   3.396  1.00  0.00     0.043 A 
HETATM   14  C   UNL     1      -8.859  -8.251   2.677  1.00  0.00     0.116 A 
HETATM   15  F   UNL     1      -9.094  -9.728   2.793  1.00  0.00    -0.206 F 
HETATM   16  C   UNL     1      -7.725  -7.735   1.842  1.00  0.00     0.043 A 
HETATM   17  C   UNL     1      -7.491  -6.258   1.726  1.00  0.00     0.019 A 
ENDBRANCH   8  11
ENDBRANCH   4   7
BRANCH   6  18
HETATM   18  N   UNL     1      -4.579   0.903   1.812  1.00  0.00    -0.332 N 
HETATM   19  C   UNL     1      -4.434   1.277   3.257  1.00  0.00     0.189 C 
HETATM   20  O   UNL     1      -5.573   1.055   4.207  1.00  0.00    -0.171 OA
HETATM   21  H   UNL     1      -3.832   1.049   1.188  1.00  0.00     0.168 HD
BRANCH  19  22
HETATM   22  C   UNL     1      -3.150   1.874   3.752  1.00  0.00     0.018 A 
HETATM   23  C   UNL     1      -2.130   1.005   4.427  1.00  0.00     0.019 A 
HETATM   24  C   UNL     1      -0.846   1.601   4.921  1.00  0.00     0.043 A 
HETATM   25  C   UNL     1      -0.581   3.066   4.741  1.00  0.00     0.116 A 
HETATM   26  F   UNL     1       0.703   3.663   5.236  1.00  0.00    -0.206 F 
HETATM   27  C   UNL     1      -1.600   3.935   4.066  1.00  0.00     0.043 A 
HETATM   28  C   UNL     1      -2.885   3.339   3.572  1.00  0.00     0.019 A 
ENDBRANCH  19  22
ENDBRANCH   6  18
BRANCH   1  29
HETATM   29  N   UNL     1      -6.678   2.665   0.591  1.00  0.00    -0.337 N 
HETATM   30  C   UNL     1      -7.164   3.588   1.669  1.00  0.00     0.151 C 
HETATM   31  C   UNL     1      -6.929   5.065   1.553  1.00  0.00     0.100 C 
HETATM   32  O   UNL     1      -7.884   3.034   2.862  1.00  0.00    -0.177 OA
HETATM   33  H   UNL     1      -6.206   3.028  -0.193  1.00  0.00     0.168 HD
ENDBRANCH   1  29
TORSDOF 5
ENDMDL
MODEL 2
REMARK VINA RESULT:       0.0     10.401     12.942
REMARK  5 active torsions:
REMARK  status: ('A' for Active; 'I' for Inactive)
REMARK       I    between atoms: C_2  and  N_4 
REMARK    1  A    between atoms: N_4  and  C_5 
REMARK    2  A    between atoms: C_8  and  N_9 
REMARK       I    between atoms: N_9  and  C_10 
REMARK    3  A    between atoms: C_10  and  C_12 
REMARK    4  A    between atoms: C_20  and  N_21 
REMARK       I    between atoms: N_21  and  C_22 
REMARK    5  A    between atoms: C_22  and  C_24 
ROOT
HETATM    1  C   UNL     1      -1.805  -8.343   8.099  1.00  0.00     0.061 A 
HETATM    2  C   UNL     1      -0.861  -9.109   7.220  1.00  0.00     0.034 A 
HETATM    3  C   UNL     1       0.193  -8.383   6.439  1.00  0.00     0.032 A 
HETATM    4  C   UNL     1       0.303  -6.890   6.536  1.00  0.00     0.036 A 
HETATM    5  C   UNL     1      -0.641  -6.124   7.415  1.00  0.00     0.061 A 
HETATM    6  C   UNL     1      -1.695  -6.851   8.196  1.00  0.00     0.063 A 
ENDROOT
BRANCH   4   7
HETATM    7  N   UNL     1       1.358  -6.163   5.755  1.00  0.00    -0.334 N 
HETATM    8  C   UNL     1       2.667  -5.820   6.401  1.00  0.00     0.189 C 
HETATM    9  O   UNL     1       2.922  -6.204   7.828  1.00  0.00    -0.171 OA
HETATM   10  H   UNL     1       1.190  -5.912   4.818  1.00  0.00     0.168 HD
BRANCH   8  11
HETATM   11  C   UNL     1       3.721  -5.094   5.620  1.00  0.00     0.018 A 
HETATM   12  C   UNL     1       3.328  -4.028   4.640  1.00  0.00     0.019 A 
HETATM   13  C   UNL     1       4.382  -3.301   3.859  1.00  0.00     0.043 A 
HETATM   14  C   UNL     1       5.830  -3.640   4.057  1.00  0.00     0.116 A 
HETATM   15  F   UNL     1       6.884  -2.913   3.276  1.00  0.00    -0.206 F 
HETATM   16  C   UNL     1       6.223  -4.706   5.037  1.00  0.00     0.043 A 
HETATM   17  C   UNL     1       5.169  -5.432   5.818  1.00  0.00     0.019 A 
ENDBRANCH   8  11
ENDBRANCH   4   7
BRANCH   6  18
HETATM   18  N   UNL     1      -2.639  -6.085   9.075  1.00  0.00    -0.332 N 
HETATM   19  C   UNL     1      -2.233  -5.717  10.471  1.00  0.00     0.189 C 
HETATM   20  O   UNL     1      -0.882  -6.115  10.989  1.00  0.00    -0.171 OA
HETATM   21  H   UNL     1      -3.525  -5.823   8.735  1.00  0.00     0.168 HD
BRANCH  19  22
HETATM   22  C   UNL     1      -3.177  -4.951  11.349  1.00  0.00     0.018 A 
HETATM   23  C   UNL     1      -4.320  -5.656  12.017  1.00  0.00     0.019 A 
HETATM   24  C   UNL     1      -5.264  -4.890  12.896  1.00  0.00     0.043 A 
HETATM   25  C   UNL     1      -5.065  -3.419  13.107  1.00  0.00     0.116 A 
HETATM   26  F   UNL     1      -6.009  -2.653  13.985  1.00  0.00    -0.206 F 
HETATM   27  C   UNL     1      -3.922  -2.713  12.439  1.00  0.00     0.043 A 
HETATM   28  C   UNL     1      -2.978  -3.479  11.561  1.00  0.00     0.019 A 
ENDBRANCH  19  22
ENDBRANCH   6  18
BRANCH   1  29
HETATM   29  N   UNL     1      -2.859  -9.070   8.880  1.00  0.00    -0.337 N 
HETATM   30  C   UNL     1      -2.544  -9.608  10.244  1.00  0.00     0.151 C 
HETATM   31  C   UNL     1      -3.599 -10.335  11.026  1.00  0.00     0.100 C 
HETATM   32  O   UNL     1      -1.175  -9.420  10.827  1.00  0.00    -0.177 OA
HETATM   33  H   UNL     1      -3.758  -9.194   8.497  1.00  0.00     0.168 HD
ENDBRANCH   1  29
TORSDOF 5
ENDMDL
MODEL 3
REMARK VINA RESULT:       0.0     15.780     19.170
REMARK  5 active torsions:
REMARK  status: ('A' for Active; 'I' for Inactive)
REMARK       I    between atoms: C_2  and  N_4 
REMARK    1  A    between atoms: N_4  and  C_5 
REMARK    2  A    between atoms: C_8  and  N_9 
REMARK       I    between atoms: N_9  and  C_10 
REMARK    3  A    between atoms: C_10  and  C_12 
REMARK    4  A    between atoms: C_20  and  N_21 
REMARK       I    between atoms: N_21  and  C_22 
REMARK    5  A    between atoms: C_22  and  C_24 
ROOT
HETATM    1  C   UNL     1       2.977 -12.899  -8.093  1.00  0.00     0.061 A 
HETATM    2  C   UNL     1       4.380 -13.375  -7.859  1.00  0.00     0.034 A 
HETATM    3  C   UNL     1       5.337 -12.530  -7.071  1.00  0.00     0.032 A 
HETATM    4  C   UNL     1       4.892 -11.209  -6.518  1.00  0.00     0.036 A 
HETATM    5  C   UNL     1       3.489 -10.733  -6.752  1.00  0.00     0.061 A 
HETATM    6  C   UNL     1       2.532 -11.578  -7.540  1.00  0.00     0.063 A 
ENDROOT
BRANCH   4   7
HETATM    7  N   UNL     1       5.849 -10.364  -5.730  1.00  0.00    -0.334 N 
HETATM    8  C   UNL     1       6.622  -9.274  -6.411  1.00  0.00     0.189 C 
HETATM    9  O   UNL     1       6.438  -9.029  -7.879  1.00  0.00    -0.171 OA
HETATM   10  H   UNL     1       5.969 -10.526  -4.767  1.00  0.00     0.168 HD
BRANCH   8  11
HETATM   11  C   UNL     1       7.579  -8.430  -5.624  1.00  0.00     0.018 A 
HETATM   12  C   UNL     1       8.351  -7.338  -6.304  1.00  0.00     0.019 A 
HETATM   13  C   UNL     1       9.308  -6.494  -5.516  1.00  0.00     0.043 A 
HETATM   14  C   UNL     1       9.494  -6.740  -4.048  1.00  0.00     0.116 A 
HETATM   15  F   UNL     1      10.451  -5.896  -3.261  1.00  0.00    -0.206 F 
HETATM   16  C   UNL     1       8.722  -7.832  -3.368  1.00  0.00     0.043 A 
HETATM   17  C   UNL     1       7.765  -8.676  -4.156  1.00  0.00     0.019 A 
ENDBRANCH   8  11
ENDBRANCH   4   7
BRANCH   6  18
HETATM   18  N   UNL     1       1.129 -11.101  -7.774  1.00  0.00    -0.332 N 
HETATM   19  C   UNL     1       0.831 -10.181  -8.920  1.00  0.00     0.189 C 
HETATM   20  O   UNL     1       1.936  -9.736  -9.832  1.00  0.00    -0.171 OA
HETATM   21  H   UNL     1       0.404 -11.393  -7.176  1.00  0.00     0.168 HD
BRANCH  19  22
HETATM   22  C   UNL     1      -0.572  -9.704  -9.155  1.00  0.00     0.018 A 
HETATM   23  C   UNL     1      -1.005  -8.364  -8.638  1.00  0.00     0.019 A 
HETATM   24  C   UNL     1      -2.408  -7.888  -8.872  1.00  0.00     0.043 A 
HETATM   25  C   UNL     1      -3.378  -8.752  -9.623  1.00  0.00     0.116 A 
HETATM   26  F   UNL     1      -4.781  -8.275  -9.858  1.00  0.00    -0.206 F 
HETATM   27  C   UNL     1      -2.945 -10.092 -10.140  1.00  0.00     0.043 A 
HETATM   28  C   UNL     1      -1.542 -10.568  -9.906  1.00  0.00     0.019 A 
ENDBRANCH  19  22
ENDBRANCH   6  18
BRANCH   1  29
HETATM   29  N   UNL     1       2.020 -13.743  -8.881  1.00  0.00    -0.337 N 
HETATM   30  C   UNL     1       1.970 -13.625 -10.375  1.00  0.00     0.151 C 
HETATM   31  C   UNL     1       1.013 -14.469 -11.163  1.00  0.00     0.100 C 
HETATM   32  O   UNL     1       2.877 -12.661 -11.082  1.00  0.00    -0.177 OA
HETATM   33  H   UNL     1       1.425 -14.375  -8.417  1.00  0.00     0.168 HD
ENDBRANCH   1  29
TORSDOF 5
ENDMDL
MODEL 4
REMARK VINA RESULT:       0.0      8.483     11.471
REMARK  5 active torsions:
REMARK  status: ('A' for Active; 'I' for Inactive)
REMARK       I    between atoms: C_2  and  N_4 
REMARK    1  A    between atoms: N_4  and  C_5 
REMARK    2  A    between atoms: C_8  and  N_9 
REMARK       I    between atoms: N_9  and  C_10 
REMARK    3  A    between atoms: C_10  and  C_12 
REMARK    4  A    between atoms: C_20  and  N_21 
REMARK       I    between atoms: N_21  and  C_22 
REMARK    5  A    between atoms: C_22  and  C_24 
ROOT
HETATM    1  C   UNL     1      -0.594  -6.702  -3.102  1.00  0.00     0.061 A 
HETATM    2  C   UNL     1      -0.712  -6.642  -4.596  1.00  0.00     0.034 A 
HETATM    3  C   UNL     1      -0.567  -5.330  -5.308  1.00  0.00     0.032 A 
HETATM    4  C   UNL     1      -0.305  -4.077  -4.525  1.00  0.00     0.036 A 
HETATM    5  C   UNL     1      -0.187  -4.137  -3.031  1.00  0.00     0.061 A 
HETATM    6  C   UNL     1      -0.331  -5.450  -2.320  1.00  0.00     0.063 A 
ENDROOT
BRANCH   4   7
HETATM    7  N   UNL     1      -0.160  -2.765  -5.237  1.00  0.00    -0.334 N 
HETATM    8  C   UNL     1      -1.344  -1.855  -5.381  1.00  0.00     0.189 C 
HETATM    9  O   UNL     1      -2.673  -2.258  -4.813  1.00  0.00    -0.171 OA
HETATM   10  H   UNL     1       0.712  -2.500  -5.609  1.00  0.00     0.168 HD
BRANCH   8  11
HETATM   11  C   UNL     1      -1.200  -0.543  -6.092  1.00  0.00     0.018 A 
HETATM   12  C   UNL     1      -2.383   0.368  -6.233  1.00  0.00     0.019 A 
HETATM   13  C   UNL     1      -2.239   1.681  -6.945  1.00  0.00     0.043 A 
HETATM   14  C   UNL     1      -0.911   2.083  -7.515  1.00  0.00     0.116 A 
HETATM   15  F   UNL     1      -0.767   3.395  -8.227  1.00  0.00    -0.206 F 
HETATM   16  C   UNL     1       0.272   1.172  -7.374  1.00  0.00     0.043 A 
HETATM   17  C   UNL     1       0.128  -0.141  -6.663  1.00  0.00     0.019 A 
ENDBRANCH   8  11
ENDBRANCH   4   7
BRANCH   6  18
HETATM   18  N   UNL     1      -0.213  -5.510  -0.826  1.00  0.00    -0.332 N 
HETATM   19  C   UNL     1      -1.409  -5.226   0.033  1.00  0.00     0.189 C 
HETATM   20  O   UNL     1      -2.724  -4.881  -0.602  1.00  0.00    -0.171 OA
HETATM   21  H   UNL     1       0.649  -5.736  -0.409  1.00  0.00     0.168 HD
BRANCH  19  22
HETATM   22  C   UNL     1      -1.291  -5.286   1.527  1.00  0.00     0.018 A 
HETATM   23  C   UNL     1      -1.073  -4.027   2.314  1.00  0.00     0.019 A 
HETATM   24  C   UNL     1      -0.955  -4.087   3.808  1.00  0.00     0.043 A 
HETATM   25  C   UNL     1      -1.055  -5.406   4.516  1.00  0.00     0.116 A 
HETATM   26  F   UNL     1      -0.937  -5.466   6.010  1.00  0.00    -0.206 F 
HETATM   27  C   UNL     1      -1.274  -6.664   3.729  1.00  0.00     0.043 A 
HETATM   28  C   UNL     1      -1.392  -6.604   2.235  1.00  0.00     0.019 A 
ENDBRANCH  19  22
ENDBRANCH   6  18
BRANCH   1  29
HETATM   29  N   UNL     1      -0.738  -8.015  -2.391  1.00  0.00    -0.337 N 
HETATM   30  C   UNL     1      -2.097  -8.502  -1.984  1.00  0.00     0.151 C 
HETATM   31  C   UNL     1      -2.242  -9.814  -1.272  1.00  0.00     0.100 C 
HETATM   32  O   UNL     1      -3.312  -7.676  -2.288  1.00  0.00    -0.177 OA
HETATM   33  H   UNL     1       0.060  -8.557  -2.191  1.00  0.00     0.168 HD
ENDBRANCH   1  29
TORSDOF 5
ENDMDL
MODEL 5
REMARK VINA RESULT:       0.0      5.103      6.052
REMARK  5 active torsions:
REMARK  status: ('A' for Active; 'I' for Inactive)
REMARK       I    between atoms: C_2  and  N_4 
REMARK    1  A    between atoms: N_4  and  C_5 
REMARK    2  A    between atoms: C_8  and  N_9 
REMARK       I    between atoms: N_9  and  C_10 
REMARK    3  A    between atoms: C_10  and  C_12 
REMARK    4  A    between atoms: C_20  and  N_21 
REMARK       I    between atoms: N_21  and  C_22 
REMARK    5  A    between atoms: C_22  and  C_24 
ROOT
HETATM    1  C   UNL     1      -1.497  -2.677  -0.138  1.00  0.00     0.061 A 
HETATM    2  C   UNL     1      -2.430  -3.221  -1.178  1.00  0.00     0.034 A 
HETATM    3  C   UNL     1      -3.801  -3.686  -0.786  1.00  0.00     0.032 A 
HETATM    4  C   UNL     1      -4.239  -3.608   0.646  1.00  0.00     0.036 A 
HETATM    5  C   UNL     1      -3.305  -3.064   1.687  1.00  0.00     0.061 A 
HETATM    6  C   UNL     1      -1.934  -2.598   1.295  1.00  0.00     0.063 A 
ENDROOT
BRANCH   4   7
HETATM    7  N   UNL     1      -5.610  -4.073   1.038  1.00  0.00    -0.334 N 
HETATM    8  C   UNL     1      -5.808  -5.465   1.562  1.00  0.00     0.189 C 
HETATM    9  O   UNL     1      -4.635  -6.391   1.693  1.00  0.00    -0.171 OA
HETATM   10  H   UNL     1      -6.379  -3.465   0.952  1.00  0.00     0.168 HD
BRANCH   8  11
HETATM   11  C   UNL     1      -7.179  -5.931   1.954  1.00  0.00     0.018 A 
HETATM   12  C   UNL     1      -7.524  -7.389   1.885  1.00  0.00     0.019 A 
HETATM   13  C   UNL     1      -8.895  -7.854   2.277  1.00  0.00     0.043 A 
HETATM   14  C   UNL     1      -9.921  -6.862   2.738  1.00  0.00     0.116 A 
HETATM   15  F   UNL     1     -11.292  -7.327   3.130  1.00  0.00    -0.206 F 
HETATM   16  C   UNL     1      -9.576  -5.403   2.806  1.00  0.00     0.043 A 
HETATM   17  C   UNL     1      -8.205  -4.938   2.414  1.00  0.00     0.019 A 
ENDBRANCH   8  11
ENDBRANCH   4   7
BRANCH   6  18
HETATM   18  N   UNL     1      -1.001  -2.054   2.335  1.00  0.00    -0.332 N 
HETATM   19  C   UNL     1      -0.173  -2.992   3.164  1.00  0.00     0.189 C 
HETATM   20  O   UNL     1      -0.279  -4.473   2.952  1.00  0.00    -0.171 OA
HETATM   21  H   UNL     1      -0.931  -1.083   2.474  1.00  0.00     0.168 HD
BRANCH  19  22
HETATM   22  C   UNL     1       0.760  -2.448   4.205  1.00  0.00     0.018 A 
HETATM   23  C   UNL     1       0.342  -2.417   5.645  1.00  0.00     0.019 A 
HETATM   24  C   UNL     1       1.275  -1.873   6.685  1.00  0.00     0.043 A 
HETATM   25  C   UNL     1       2.627  -1.360   6.286  1.00  0.00     0.116 A 
HETATM   26  F   UNL     1       3.560  -0.816   7.326  1.00  0.00    -0.206 F 
HETATM   27  C   UNL     1       3.045  -1.391   4.846  1.00  0.00     0.043 A 
HETATM   28  C   UNL     1       2.112  -1.935   3.805  1.00  0.00     0.019 A 
ENDBRANCH  19  22
ENDBRANCH   6  18
BRANCH   1  29
HETATM   29  N   UNL     1      -0.126  -2.211  -0.530  1.00  0.00    -0.337 N 
HETATM   30  C   UNL     1       1.016  -3.184  -0.564  1.00  0.00     0.151 C 
HETATM   31  C   UNL     1       2.387  -2.718  -0.956  1.00  0.00     0.100 C 
HETATM   32  O   UNL     1       0.786  -4.622  -0.206  1.00  0.00    -0.177 OA
HETATM   33  H   UNL     1       0.025  -1.267  -0.765  1.00  0.00     0.168 HD
ENDBRANCH   1  29
TORSDOF 5
ENDMDL
MODEL 6
REMARK VINA RESULT:       0.0      9.721     12.297
REMARK  5 active torsions:
REMARK  status: ('A' for Active; 'I' for Inactive)
REMARK       I    between atoms: C_2  and  N_4 
REMARK    1  A    between atoms: N_4  and  C_5 
REMARK    2  A    between atoms: C_8  and  N_9 
REMARK       I    between atoms: N_9  and  C_10 
REMARK    3  A    between atoms: C_10  and  C_12 
REMARK    4  A    between atoms: C_20  and  N_21 
REMARK       I    between atoms: N_21  and  C_22 
REMARK    5  A    between atoms: C_22  and  C_24 
ROOT
HETATM    1  C   UNL     1       2.381   1.731   7.706  1.00  0.00     0.061 A 
HETATM    2  C   UNL     1       2.757   0.734   8.762  1.00  0.00     0.034 A 
HETATM    3  C   UNL     1       3.951  -0.153   8.565  1.00  0.00     0.032 A 
HETATM    4  C   UNL     1       4.769  -0.043   7.312  1.00  0.00     0.036 A 
HETATM    5  C   UNL     1       4.393   0.954   6.257  1.00  0.00     0.061 A 
HETATM    6  C   UNL     1       3.199   1.841   6.454  1.00  0.00     0.063 A 
ENDROOT
BRANCH   4   7
HETATM    7  N   UNL     1       5.963  -0.929   7.115  1.00  0.00    -0.334 N 
HETATM    8  C   UNL     1       5.829  -2.206   6.339  1.00  0.00     0.189 C 
HETATM    9  O   UNL     1       4.502  -2.595   5.759  1.00  0.00    -0.171 OA
HETATM   10  H   UNL     1       6.834  -0.673   7.496  1.00  0.00     0.168 HD
BRANCH   8  11
HETATM   11  C   UNL     1       7.023  -3.092   6.142  1.00  0.00     0.018 A 
HETATM   12  C   UNL     1       8.337  -2.730   6.767  1.00  0.00     0.019 A 
HETATM   13  C   UNL     1       9.531  -3.616   6.570  1.00  0.00     0.043 A 
HETATM   14  C   UNL     1       9.410  -4.865   5.748  1.00  0.00     0.116 A 
HETATM   15  F   UNL     1      10.604  -5.752   5.551  1.00  0.00    -0.206 F 
HETATM   16  C   UNL     1       8.096  -5.228   5.123  1.00  0.00     0.043 A 
HETATM   17  C   UNL     1       6.902  -4.341   5.320  1.00  0.00     0.019 A 
ENDBRANCH   8  11
ENDBRANCH   4   7
BRANCH   6  18
HETATM   18  N   UNL     1       2.822   2.838   5.398  1.00  0.00    -0.332 N 
HETATM   19  C   UNL     1       1.973   2.415   4.236  1.00  0.00     0.189 C 
HETATM   20  O   UNL     1       1.500   0.995   4.130  1.00  0.00    -0.171 OA
HETATM   21  H   UNL     1       3.133   3.769   5.467  1.00  0.00     0.168 HD
BRANCH  19  22
HETATM   22  C   UNL     1       1.597   3.412   3.180  1.00  0.00     0.018 A 
HETATM   23  C   UNL     1       2.398   3.503   1.915  1.00  0.00     0.019 A 
HETATM   24  C   UNL     1       2.022   4.500   0.859  1.00  0.00     0.043 A 
HETATM   25  C   UNL     1       0.845   5.405   1.068  1.00  0.00     0.116 A 
HETATM   26  F   UNL     1       0.468   6.402   0.013  1.00  0.00    -0.206 F 
HETATM   27  C   UNL     1       0.044   5.314   2.333  1.00  0.00     0.043 A 
HETATM   28  C   UNL     1       0.420   4.317   3.389  1.00  0.00     0.019 A 
ENDBRANCH  19  22
ENDBRANCH   6  18
BRANCH   1  29
HETATM   29  N   UNL     1       1.187   2.617   7.903  1.00  0.00    -0.337 N 
HETATM   30  C   UNL     1      -0.175   2.144   7.490  1.00  0.00     0.151 C 
HETATM   31  C   UNL     1      -1.368   3.031   7.687  1.00  0.00     0.100 C 
HETATM   32  O   UNL     1      -0.343   0.784   6.879  1.00  0.00    -0.177 OA
HETATM   33  H   UNL     1       1.298   3.510   8.304  1.00  0.00     0.168 HD
ENDBRANCH   1  29
TORSDOF 5
ENDMDL
MODEL 7
REMARK VINA RESULT:       0.0      6.165     10.134
REMARK  5 active torsions:
REMARK  status: ('A' for Active; 'I' for Inactive)
REMARK       I    between atoms: C_2  and  N_4 
REMARK    1  A    between atoms: N_4  and  C_5 
REMARK    2  A    between atoms: C_8  and  N_9 
REMARK       I    between atoms: N_9  and  C_10 
REMARK    3  A    between atoms: C_10  and  C_12 
REMARK    4  A    between atoms: C_20  and  N_21 
REMARK       I    between atoms: N_21  and  C_22 
REMARK    5  A    between atoms: C_22  and  C_24 
ROOT
HETATM    1  C   UNL     1      -5.753   5.099  -0.271  1.00  0.00     0.061 A 
HETATM    2  C   UNL     1      -6.257   6.494  -0.045  1.00  0.00     0.034 A 
HETATM    3  C   UNL     1      -6.383   7.028   1.351  1.00  0.00     0.032 A 
HETATM    4  C   UNL     1      -6.005   6.168   2.521  1.00  0.00     0.036 A 
HETATM    5  C   UNL     1      -5.501   4.773   2.294  1.00  0.00     0.061 A 
HETATM    6  C   UNL     1      -5.375   4.239   0.898  1.00  0.00     0.063 A 
ENDROOT
BRANCH   4   7
HETATM    7  N   UNL     1      -6.130   6.703   3.917  1.00  0.00    -0.334 N 
HETATM    8  C   UNL     1      -4.940   7.312   4.597  1.00  0.00     0.189 C 
HETATM    9  O   UNL     1      -3.624   7.386   3.881  1.00  0.00    -0.171 OA
HETATM   10  H   UNL     1      -6.995   6.653   4.386  1.00  0.00     0.168 HD
BRANCH   8  11
HETATM   11  C   UNL     1      -5.066   7.846   5.992  1.00  0.00     0.018 A 
HETATM   12  C   UNL     1      -6.392   7.810   6.693  1.00  0.00     0.019 A 
HETATM   13  C   UNL     1      -6.518   8.344   8.089  1.00  0.00     0.043 A 
HETATM   14  C   UNL     1      -5.317   8.915   8.784  1.00  0.00     0.116 A 
HETATM   15  F   UNL     1      -5.443   9.450  10.180  1.00  0.00    -0.206 F 
HETATM   16  C   UNL     1      -3.992   8.951   8.084  1.00  0.00     0.043 A 
HETATM   17  C   UNL     1      -3.866   8.417   6.688  1.00  0.00     0.019 A 
ENDBRANCH   8  11
ENDBRANCH   4   7
BRANCH   6  18
HETATM   18  N   UNL     1      -4.872   2.844   0.672  1.00  0.00    -0.332 N 
HETATM   19  C   UNL     1      -3.397   2.580   0.612  1.00  0.00     0.189 C 
HETATM   20  O   UNL     1      -2.425   3.710   0.779  1.00  0.00    -0.171 OA
HETATM   21  H   UNL     1      -5.509   2.103   0.562  1.00  0.00     0.168 HD
BRANCH  19  22
HETATM   22  C   UNL     1      -2.893   1.185   0.385  1.00  0.00     0.018 A 
HETATM   23  C   UNL     1      -2.496   0.332   1.554  1.00  0.00     0.019 A 
HETATM   24  C   UNL     1      -1.993  -1.062   1.327  1.00  0.00     0.043 A 
HETATM   25  C   UNL     1      -1.886  -1.604  -0.068  1.00  0.00     0.116 A 
HETATM   26  F   UNL     1      -1.382  -2.998  -0.294  1.00  0.00    -0.206 F 
HETATM   27  C   UNL     1      -2.283  -0.751  -1.236  1.00  0.00     0.043 A 
HETATM   28  C   UNL     1      -2.786   0.644  -1.009  1.00  0.00     0.019 A 
ENDBRANCH  19  22
ENDBRANCH   6  18
BRANCH   1  29
HETATM   29  N   UNL     1      -5.628   4.565  -1.667  1.00  0.00    -0.337 N 
HETATM   30  C   UNL     1      -4.371   4.803  -2.451  1.00  0.00     0.151 C 
HETATM   31  C   UNL     1      -4.246   4.269  -3.847  1.00  0.00     0.100 C 
HETATM   32  O   UNL     1      -3.241   5.576  -1.839  1.00  0.00    -0.177 OA
HETATM   33  H   UNL     1      -6.370   4.057  -2.068  1.00  0.00     0.168 HD
ENDBRANCH   1  29
TORSDOF 5
ENDMDL
MODEL 8
REMARK VINA RESULT:       0.0      6.452      8.458
REMARK  5 active torsions:
REMARK  status: ('A' for Active; 'I' for Inactive)
REMARK       I    between atoms: C_2  and  N_4 
REMARK    1  A    between atoms: N_4  and  C_5 
REMARK    2  A    between atoms: C_8  and  N_9 
REMARK       I    between atoms: N_9  and  C_10 
REMARK    3  A    between atoms: C_10  and  C_12 
REMARK    4  A    between atoms: C_20  and  N_21 
REMARK       I    between atoms: N_21  and  C_22 
REMARK    5  A    between atoms: C_22  and  C_24 
ROOT
HETATM    1  C   UNL     1      -5.023   3.674  -2.687  1.00  0.00     0.061 A 
HETATM    2  C   UNL     1      -4.843   2.186  -2.748  1.00  0.00     0.034 A 
HETATM    3  C   UNL     1      -5.918   1.279  -2.225  1.00  0.00     0.032 A 
HETATM    4  C   UNL     1      -7.171   1.859  -1.642  1.00  0.00     0.036 A 
HETATM    5  C   UNL     1      -7.351   3.347  -1.581  1.00  0.00     0.061 A 
HETATM    6  C   UNL     1      -6.277   4.254  -2.104  1.00  0.00     0.063 A 
ENDROOT
BRANCH   4   7
HETATM    7  N   UNL     1      -8.246   0.952  -1.119  1.00  0.00    -0.334 N 
HETATM    8  C   UNL     1      -9.402   0.576  -1.998  1.00  0.00     0.189 C 
HETATM    9  O   UNL     1      -9.484   1.106  -3.398  1.00  0.00    -0.171 OA
HETATM   10  H   UNL     1      -8.192   0.604  -0.200  1.00  0.00     0.168 HD
BRANCH   8  11
HETATM   11  C   UNL     1     -10.476  -0.331  -1.475  1.00  0.00     0.018 A 
HETATM   12  C   UNL     1     -11.661  -0.662  -2.333  1.00  0.00     0.019 A 
HETATM   13  C   UNL     1     -12.736  -1.569  -1.810  1.00  0.00     0.043 A 
HETATM   14  C   UNL     1     -12.625  -2.145  -0.430  1.00  0.00     0.116 A 
HETATM   15  F   UNL     1     -13.699  -3.053   0.093  1.00  0.00    -0.206 F 
HETATM   16  C   UNL     1     -11.440  -1.815   0.428  1.00  0.00     0.043 A 
HETATM   17  C   UNL     1     -10.366  -0.907  -0.095  1.00  0.00     0.019 A 
ENDBRANCH   8  11
ENDBRANCH   4   7
BRANCH   6  18
HETATM   18  N   UNL     1      -6.456   5.742  -2.043  1.00  0.00    -0.332 N 
HETATM   19  C   UNL     1      -7.204   6.453  -3.132  1.00  0.00     0.189 C 
HETATM   20  O   UNL     1      -7.773   5.675  -4.282  1.00  0.00    -0.171 OA
HETATM   21  H   UNL     1      -6.083   6.253  -1.289  1.00  0.00     0.168 HD
BRANCH  19  22
HETATM   22  C   UNL     1      -7.384   7.940  -3.072  1.00  0.00     0.018 A 
HETATM   23  C   UNL     1      -6.297   8.848  -3.566  1.00  0.00     0.019 A 
HETATM   24  C   UNL     1      -6.476  10.336  -3.505  1.00  0.00     0.043 A 
HETATM   25  C   UNL     1      -7.743  10.916  -2.950  1.00  0.00     0.116 A 
HETATM   26  F   UNL     1      -7.923  12.404  -2.889  1.00  0.00    -0.206 F 
HETATM   27  C   UNL     1      -8.830  10.009  -2.456  1.00  0.00     0.043 A 
HETATM   28  C   UNL     1      -8.651   8.521  -2.517  1.00  0.00     0.019 A 
ENDBRANCH  19  22
ENDBRANCH   6  18
BRANCH   1  29
HETATM   29  N   UNL     1      -3.949   4.581  -3.210  1.00  0.00    -0.337 N 
HETATM   30  C   UNL     1      -3.930   4.963  -4.660  1.00  0.00     0.151 C 
HETATM   31  C   UNL     1      -2.855   5.870  -5.183  1.00  0.00     0.100 C 
HETATM   32  O   UNL     1      -4.985   4.439  -5.588  1.00  0.00    -0.177 OA
HETATM   33  H   UNL     1      -3.256   4.925  -2.600  1.00  0.00     0.168 HD
ENDBRANCH   1  29
TORSDOF 5
ENDMDL
MODEL 9
REMARK VINA RESULT:       0.0      8.419     10.819
REMARK  5 active torsions:
REMARK  status: ('A' for Active; 'I' for Inactive)
REMARK       I    between atoms: C_2  and  N_4 
REMARK    1  A    between atoms: N_4  and  C_5 
REMARK    2  A    between atoms: C_8  and  N_9 
REMARK       I    between atoms: N_9  and  C_10 
REMARK    3  A    between atoms: C_10  and  C_12 
REMARK    4  A    between atoms: C_20  and  N_21 
REMARK       I    between atoms: N_21  and  C_22 
REMARK    5  A    between atoms: C_22  and  C_24 
ROOT
HETATM    1  C   UNL     1      -4.846   5.321  -3.560  1.00  0.00     0.061 A 
HETATM    2  C   UNL     1      -4.908   3.874  -3.169  1.00  0.00     0.034 A 
HETATM    3  C   UNL     1      -6.204   3.278  -2.705  1.00  0.00     0.032 A 
HETATM    4  C   UNL     1      -7.437   4.128  -2.633  1.00  0.00     0.036 A 
HETATM    5  C   UNL     1      -7.375   5.575  -3.024  1.00  0.00     0.061 A 
HETATM    6  C   UNL     1      -6.079   6.171  -3.488  1.00  0.00     0.063 A 
ENDROOT
BRANCH   4   7
HETATM    7  N   UNL     1      -8.733   3.532  -2.169  1.00  0.00    -0.334 N 
HETATM    8  C   UNL     1      -9.726   3.023  -3.172  1.00  0.00     0.189 C 
HETATM    9  O   UNL     1      -9.423   3.111  -4.638  1.00  0.00    -0.171 OA
HETATM   10  H   UNL     1      -8.932   3.475  -1.206  1.00  0.00     0.168 HD
BRANCH   8  11
HETATM   11  C   UNL     1     -11.022   2.427  -2.708  1.00  0.00     0.018 A 
HETATM   12  C   UNL     1     -12.039   1.971  -3.711  1.00  0.00     0.019 A 
HETATM   13  C   UNL     1     -13.335   1.374  -3.247  1.00  0.00     0.043 A 
HETATM   14  C   UNL     1     -13.614   1.235  -1.780  1.00  0.00     0.116 A 
HETATM   15  F   UNL     1     -14.910   0.639  -1.317  1.00  0.00    -0.206 F 
HETATM   16  C   UNL     1     -12.597   1.691  -0.777  1.00  0.00     0.043 A 
HETATM   17  C   UNL     1     -11.301   2.288  -1.241  1.00  0.00     0.019 A 
ENDBRANCH   8  11
ENDBRANCH   4   7
BRANCH   6  18
HETATM   18  N   UNL     1      -6.016   7.618  -3.879  1.00  0.00    -0.332 N 
HETATM   19  C   UNL     1      -6.390   8.035  -5.270  1.00  0.00     0.189 C 
HETATM   20  O   UNL     1      -6.827   7.006  -6.270  1.00  0.00    -0.171 OA
HETATM   21  H   UNL     1      -5.730   8.293  -3.223  1.00  0.00     0.168 HD
BRANCH  19  22
HETATM   22  C   UNL     1      -6.328   9.482  -5.661  1.00  0.00     0.018 A 
HETATM   23  C   UNL     1      -5.025  10.086  -6.095  1.00  0.00     0.019 A 
HETATM   24  C   UNL     1      -4.962  11.533  -6.487  1.00  0.00     0.043 A 
HETATM   25  C   UNL     1      -6.202  12.375  -6.444  1.00  0.00     0.116 A 
HETATM   26  F   UNL     1      -6.140  13.822  -6.835  1.00  0.00    -0.206 F 
HETATM   27  C   UNL     1      -7.505  11.772  -6.010  1.00  0.00     0.043 A 
HETATM   28  C   UNL     1      -7.568  10.325  -5.618  1.00  0.00     0.019 A 
ENDBRANCH  19  22
ENDBRANCH   6  18
BRANCH   1  29
HETATM   29  N   UNL     1      -3.550   5.917  -4.024  1.00  0.00    -0.337 N 
HETATM   30  C   UNL     1      -3.164   5.839  -5.471  1.00  0.00     0.151 C 
HETATM   31  C   UNL     1      -1.868   6.435  -5.935  1.00  0.00     0.100 C 
HETATM   32  O   UNL     1      -4.074   5.165  -6.455  1.00  0.00    -0.177 OA
HETATM   33  H   UNL     1      -2.952   6.359  -3.378  1.00  0.00     0.168 HD
ENDBRANCH   1  29
TORSDOF 5
ENDMDL
