REMARK  4 active torsions:
REMARK  status: ('A' for Active; 'I' for Inactive)
REMARK       I    between atoms: N_2  and  C_4 
REMARK    1  A    between atoms: C_4  and  C_6 
REMARK       I    between atoms: N_10  and  C_11 
REMARK    2  A    between atoms: C_11  and  C_13 
REMARK    3  A    between atoms: C_13  and  C_14 
REMARK    4  A    between atoms: N_16  and  C_17 
ROOT
HETATM    1  C   UNL     1       1.500   0.000   0.000  1.00  0.00     0.081 A 
HETATM    2  C   UNL     1       0.750  -1.299   0.000  1.00  0.00     0.018 A 
HETATM    3  C   UNL     1      -0.750  -1.299   0.000  1.00  0.00     0.021 A 
HETATM    4  C   UNL     1      -1.500   0.000   0.000  1.00  0.00     0.124 A 
HETATM    5  N   UNL     1      -0.750   1.299   0.000  1.00  0.00    -0.362 N 
HETATM    6  C   UNL     1      -1.500   2.598   0.000  1.00  0.00     0.159 C 
HETATM    7  O   UNL     1      -3.000   2.598   0.000  1.00  0.00    -0.177 OA
HETATM    8  C   UNL     1       0.750   1.299   0.000  1.00  0.00     0.137 A 
ENDROOT
BRANCH   6   9
HETATM    9  C   UNL     1      -0.750   3.897   0.000  1.00  0.00     0.149 C 
BRANCH   9  10
HETATM   10  C   UNL     1      -1.500   5.196   0.000  1.00  0.00     0.077 A 
HETATM   11  C   UNL     1      -2.992   5.353   0.000  1.00  0.00     0.143 A 
HETATM   12  N   UNL     1      -3.304   6.820   0.000  1.00  0.00    -0.247 N 
HETATM   13  N   UNL     1      -2.005   7.570   0.000  1.00  0.00     0.009 NA
HETATM   14  N   UNL     1      -0.890   6.566   0.000  1.00  0.00    -0.162 NA
BRANCH  12  15
HETATM   15  C   UNL     1      -4.674   7.430   0.000  1.00  0.00     0.054 A 
HETATM   16  C   UNL     1      -4.831   8.922   0.000  1.00  0.00     0.031 A 
HETATM   17  C   UNL     1      -6.201   9.532   0.000  1.00  0.00     0.002 A 
HETATM   18  C   UNL     1      -7.415   8.650   0.000  1.00  0.00     0.000 A 
HETATM   19  C   UNL     1      -7.258   7.159   0.000  1.00  0.00     0.002 A 
HETATM   20  C   UNL     1      -5.888   6.549   0.000  1.00  0.00     0.031 A 
ENDBRANCH  12  15
ENDBRANCH   9  10
ENDBRANCH   6   9
BRANCH   1  21
HETATM   21  C   UNL     1       3.000   0.000   0.000  1.00  0.00     0.158 C 
HETATM   22  N   UNL     1       3.750  -1.299   0.000  1.00  0.00    -0.371 N 
HETATM   23  C   UNL     1       5.250  -1.299   0.000  1.00  0.00     0.150 C 
HETATM   24  C   UNL     1       3.000  -2.598   0.000  1.00  0.00     0.149 C 
HETATM   25  O   UNL     1       3.750   1.299   0.000  1.00  0.00    -0.177 OA
ENDBRANCH   1  21
TORSDOF 4
