REMARK  6 active torsions:
REMARK  status: ('A' for Active; 'I' for Inactive)
REMARK    1  A    between atoms: O_2  and  C_3 
REMARK    2  A    between atoms: C_6  and  C_7 
REMARK    3  A    between atoms: C_10  and  C_11 
REMARK    4  A    between atoms: C_11  and  C_12 
REMARK    5  A    between atoms: C_12  and  C_13 
REMARK       I    between atoms: C_13  and  N_15 
REMARK    6  A    between atoms: N_15  and  C_16 
ROOT
HETATM    1  C   UNL     1      -3.000   0.000   0.000  1.00  0.00     0.163 A 
HETATM    2  N   UNL     1      -3.882  -1.214   0.000  1.00  0.00    -0.129 NA
HETATM    3  N   UNL     1      -5.308  -0.750   0.000  1.00  0.00    -0.134 NA
HETATM    4  C   UNL     1      -5.308   0.750   0.000  1.00  0.00     0.130 A 
HETATM    5  N   UNL     1      -3.882   1.214   0.000  1.00  0.00    -0.321 N 
HETATM    6  C   UNL     1      -3.418   2.640   0.000  1.00  0.00     0.159 C 
ENDROOT
BRANCH   4   7
HETATM    7  C   UNL     1      -6.522   1.632   0.000  1.00  0.00     0.089 C 
BRANCH   7   8
HETATM    8  C   UNL     1      -6.365   3.123   0.000  1.00  0.00     0.095 C 
BRANCH   8   9
HETATM    9  C   UNL     1      -7.579   4.005   0.000  1.00  0.00     0.156 C 
HETATM   10  O   UNL     1      -8.949   3.395   0.000  1.00  0.00    -0.177 OA
HETATM   11  N   UNL     1      -7.422   5.497   0.000  1.00  0.00    -0.338 N 
HETATM   12  H   UNL     1      -6.522   5.897   0.000  1.00  0.00     0.168 HD
BRANCH  11  13
HETATM   13  C   UNL     1      -8.635   6.379   0.000  1.00  0.00     0.033 A 
HETATM   14  C   UNL     1      -8.479   7.870   0.000  1.00  0.00     0.029 A 
HETATM   15  C   UNL     1      -9.692   8.752   0.000  1.00  0.00     0.002 A 
HETATM   16  C   UNL     1     -11.062   8.142   0.000  1.00  0.00     0.000 A 
HETATM   17  C   UNL     1     -11.219   6.650   0.000  1.00  0.00     0.002 A 
HETATM   18  C   UNL     1     -10.006   5.769   0.000  1.00  0.00     0.029 A 
ENDBRANCH  11  13
ENDBRANCH   8   9
ENDBRANCH   7   8
ENDBRANCH   4   7
BRANCH   1  19
HETATM   19  C   UNL     1      -1.500   0.000   0.000  1.00  0.00     0.012 A 
HETATM   20  C   UNL     1      -0.750  -1.299   0.000  1.00  0.00     0.018 A 
HETATM   21  C   UNL     1       0.750  -1.299   0.000  1.00  0.00     0.037 A 
HETATM   22  C   UNL     1       1.500   0.000   0.000  1.00  0.00     0.068 A 
HETATM   23  C   UNL     1       0.750   1.299   0.000  1.00  0.00     0.037 A 
HETATM   24  C   UNL     1      -0.750   1.299   0.000  1.00  0.00     0.018 A 
BRANCH  22  25
HETATM   25  O   UNL     1       3.000   0.000   0.000  1.00  0.00    -0.356 OA
HETATM   26  C   UNL     1       3.750  -1.299   0.000  1.00  0.00     0.210 C 
ENDBRANCH  22  25
ENDBRANCH   1  19
TORSDOF 6
