MODEL 1
REMARK VINA RESULT:      -7.0      0.000      0.000
REMARK  4 active torsions:
REMARK  status: ('A' for Active; 'I' for Inactive)
REMARK    1  A    between atoms: C_2  and  N_4 
REMARK    2  A    between atoms: C_8  and  N_9 
REMARK       I    between atoms: N_9  and  C_10 
REMARK    3  A    between atoms: C_10  and  C_12 
REMARK    4  A    between atoms: C_14  and  C_15 
ROOT
HETATM    1  C   UNL     1     -12.148   9.912  70.744  1.00  0.00     0.133 A 
HETATM    2  C   UNL     1     -11.333   8.674  70.512  1.00  0.00     0.069 A 
HETATM    3  C   UNL     1     -11.716   7.665  71.554  1.00  0.00     0.062 A 
HETATM    4  N   UNL     1     -12.767   8.279  72.430  1.00  0.00    -0.277 N 
HETATM    5  N   UNL     1     -13.034   9.668  71.930  1.00  0.00    -0.170 NA
HETATM    6  H   UNL     1     -13.205   7.847  73.199  1.00  0.00     0.189 HD
ENDROOT
BRANCH   1   7
HETATM    7  C   UNL     1     -12.088  11.172  69.933  1.00  0.00     0.211 C 
HETATM    8  N   UNL     1     -11.899  12.495  70.615  1.00  0.00    -0.318 N 
HETATM    9  H   UNL     1     -11.815  12.536  71.595  1.00  0.00     0.169 HD
HETATM   10  O   UNL     1     -12.216  11.110  68.440  1.00  0.00    -0.169 OA
BRANCH   8  11
HETATM   11  C   UNL     1     -11.839  13.755  69.803  1.00  0.00     0.127 A 
HETATM   12  N   UNL     1     -12.375  15.094  70.214  1.00  0.00    -0.250 N 
HETATM   13  N   UNL     1     -12.099  16.064  69.103  1.00  0.00    -0.183 NA
HETATM   14  C   UNL     1     -11.393  15.325  68.007  1.00  0.00     0.142 A 
HETATM   15  C   UNL     1     -11.232  13.897  68.440  1.00  0.00     0.071 A 
BRANCH  12  16
HETATM   16  C   UNL     1     -13.066  15.409  71.508  1.00  0.00     0.104 C 
HETATM   17  C   UNL     1     -14.527  15.112  71.670  1.00  0.00     0.034 C 
HETATM   18  C   UNL     1     -12.295  16.021  72.639  1.00  0.00     0.034 C 
ENDBRANCH  12  16
ENDBRANCH   8  11
ENDBRANCH   1   7
BRANCH   3  19
HETATM   19  C   UNL     1     -11.147   6.284  71.695  1.00  0.00    -0.008 A 
HETATM   20  C   UNL     1     -11.275   5.550  72.997  1.00  0.00     0.014 A 
HETATM   21  C   UNL     1     -10.706   4.169  73.138  1.00  0.00     0.001 A 
HETATM   22  C   UNL     1     -10.009   3.523  71.977  1.00  0.00     0.000 A 
HETATM   23  C   UNL     1      -9.880   4.257  70.676  1.00  0.00     0.001 A 
HETATM   24  C   UNL     1     -10.449   5.638  70.535  1.00  0.00     0.014 A 
ENDBRANCH   3  19
TORSDOF 4
ENDMDL
MODEL 2
REMARK VINA RESULT:      -7.0      3.331      9.555
REMARK  4 active torsions:
REMARK  status: ('A' for Active; 'I' for Inactive)
REMARK    1  A    between atoms: C_2  and  N_4 
REMARK    2  A    between atoms: C_8  and  N_9 
REMARK       I    between atoms: N_9  and  C_10 
REMARK    3  A    between atoms: C_10  and  C_12 
REMARK    4  A    between atoms: C_14  and  C_15 
ROOT
HETATM    1  C   UNL     1     -10.879  13.542  67.703  1.00  0.00     0.133 A 
HETATM    2  C   UNL     1     -11.021  14.960  68.173  1.00  0.00     0.069 A 
HETATM    3  C   UNL     1     -10.320  15.847  67.188  1.00  0.00     0.062 A 
HETATM    4  N   UNL     1      -9.744  14.978  66.109  1.00  0.00    -0.277 N 
HETATM    5  N   UNL     1     -10.089  13.554  66.427  1.00  0.00    -0.170 NA
HETATM    6  H   UNL     1      -9.229  15.289  65.329  1.00  0.00     0.189 HD
ENDROOT
BRANCH   1   7
HETATM    7  C   UNL     1     -11.429  12.327  68.388  1.00  0.00     0.211 C 
HETATM    8  N   UNL     1     -11.296  12.180  69.876  1.00  0.00    -0.318 N 
HETATM    9  H   UNL     1     -10.848  12.881  70.401  1.00  0.00     0.169 HD
HETATM   10  O   UNL     1     -12.113  11.259  67.587  1.00  0.00    -0.169 OA
BRANCH   8  11
HETATM   11  C   UNL     1     -11.847  10.964  70.560  1.00  0.00     0.127 A 
HETATM   12  N   UNL     1     -11.297   9.572  70.462  1.00  0.00    -0.250 N 
HETATM   13  N   UNL     1     -12.154   8.674  71.304  1.00  0.00    -0.183 NA
HETATM   14  C   UNL     1     -13.234   9.510  71.923  1.00  0.00     0.142 A 
HETATM   15  C   UNL     1     -13.044  10.926  71.463  1.00  0.00     0.071 A 
BRANCH  12  16
HETATM   16  C   UNL     1     -10.100   9.151  69.661  1.00  0.00     0.104 C 
HETATM   17  C   UNL     1     -10.277   8.318  68.427  1.00  0.00     0.034 C 
HETATM   18  C   UNL     1      -8.725   9.565  70.096  1.00  0.00     0.034 C 
ENDBRANCH  12  16
ENDBRANCH   8  11
ENDBRANCH   1   7
BRANCH   3  19
HETATM   19  C   UNL     1     -10.213  17.341  67.268  1.00  0.00    -0.008 A 
HETATM   20  C   UNL     1     -10.469  18.178  66.049  1.00  0.00     0.014 A 
HETATM   21  C   UNL     1     -10.362  19.672  66.129  1.00  0.00     0.001 A 
HETATM   22  C   UNL     1      -9.999  20.329  67.427  1.00  0.00     0.000 A 
HETATM   23  C   UNL     1      -9.743  19.493  68.645  1.00  0.00     0.001 A 
HETATM   24  C   UNL     1      -9.850  17.999  68.566  1.00  0.00     0.014 A 
ENDBRANCH   3  19
TORSDOF 4
ENDMDL
MODEL 3
REMARK VINA RESULT:      -7.0      2.571      4.565
REMARK  4 active torsions:
REMARK  status: ('A' for Active; 'I' for Inactive)
REMARK    1  A    between atoms: C_2  and  N_4 
REMARK    2  A    between atoms: C_8  and  N_9 
REMARK       I    between atoms: N_9  and  C_10 
REMARK    3  A    between atoms: C_10  and  C_12 
REMARK    4  A    between atoms: C_14  and  C_15 
ROOT
HETATM    1  C   UNL     1     -12.331  13.428  70.416  1.00  0.00     0.133 A 
HETATM    2  C   UNL     1     -11.998  11.984  70.175  1.00  0.00     0.069 A 
HETATM    3  C   UNL     1     -12.647  11.173  71.257  1.00  0.00     0.062 A 
HETATM    4  N   UNL     1     -13.380  12.115  72.166  1.00  0.00    -0.277 N 
HETATM    5  N   UNL     1     -13.185  13.508  71.646  1.00  0.00    -0.170 NA
HETATM    6  H   UNL     1     -13.899  11.863  72.964  1.00  0.00     0.189 HD
ENDROOT
BRANCH   1   7
HETATM    7  C   UNL     1     -11.886  14.587  69.573  1.00  0.00     0.211 C 
HETATM    8  N   UNL     1     -10.911  14.370  68.454  1.00  0.00    -0.318 N 
HETATM    9  H   UNL     1     -10.563  13.468  68.272  1.00  0.00     0.169 HD
HETATM   10  O   UNL     1     -12.417  15.962  69.849  1.00  0.00    -0.169 OA
BRANCH   8  11
HETATM   11  C   UNL     1     -10.467  15.530  67.612  1.00  0.00     0.127 A 
HETATM   12  N   UNL     1     -10.519  15.602  66.114  1.00  0.00    -0.250 N 
HETATM   13  N   UNL     1      -9.978  16.937  65.696  1.00  0.00    -0.183 NA
HETATM   14  C   UNL     1      -9.593  17.690  66.934  1.00  0.00     0.142 A 
HETATM   15  C   UNL     1      -9.895  16.819  68.118  1.00  0.00     0.071 A 
BRANCH  12  16
HETATM   16  C   UNL     1     -11.023  14.528  65.196  1.00  0.00     0.104 C 
HETATM   17  C   UNL     1     -10.237  13.264  65.018  1.00  0.00     0.034 C 
HETATM   18  C   UNL     1     -12.314  14.719  64.456  1.00  0.00     0.034 C 
ENDBRANCH  12  16
ENDBRANCH   8  11
ENDBRANCH   1   7
BRANCH   3  19
HETATM   19  C   UNL     1     -12.575   9.682  71.404  1.00  0.00    -0.008 A 
HETATM   20  C   UNL     1     -13.837   8.876  71.492  1.00  0.00     0.014 A 
HETATM   21  C   UNL     1     -13.765   7.385  71.639  1.00  0.00     0.001 A 
HETATM   22  C   UNL     1     -12.432   6.700  71.699  1.00  0.00     0.000 A 
HETATM   23  C   UNL     1     -11.170   7.507  71.611  1.00  0.00     0.001 A 
HETATM   24  C   UNL     1     -11.242   8.998  71.464  1.00  0.00     0.014 A 
ENDBRANCH   3  19
TORSDOF 4
ENDMDL
MODEL 4
REMARK VINA RESULT:      -6.7      3.738      6.447
REMARK  4 active torsions:
REMARK  status: ('A' for Active; 'I' for Inactive)
REMARK    1  A    between atoms: C_2  and  N_4 
REMARK    2  A    between atoms: C_8  and  N_9 
REMARK       I    between atoms: N_9  and  C_10 
REMARK    3  A    between atoms: C_10  and  C_12 
REMARK    4  A    between atoms: C_14  and  C_15 
ROOT
HETATM    1  C   UNL     1     -10.970  15.284  68.344  1.00  0.00     0.133 A 
HETATM    2  C   UNL     1     -10.786  13.825  68.642  1.00  0.00     0.069 A 
HETATM    3  C   UNL     1     -11.825  13.422  69.646  1.00  0.00     0.062 A 
HETATM    4  N   UNL     1     -12.651  14.632  69.969  1.00  0.00    -0.277 N 
HETATM    5  N   UNL     1     -12.123  15.782  69.164  1.00  0.00    -0.170 NA
HETATM    6  H   UNL     1     -13.408  14.664  70.598  1.00  0.00     0.189 HD
ENDROOT
BRANCH   1   7
HETATM    7  C   UNL     1     -10.146  16.101  67.394  1.00  0.00     0.211 C 
HETATM    8  N   UNL     1      -8.873  16.741  67.864  1.00  0.00    -0.318 N 
HETATM    9  H   UNL     1      -8.579  16.625  68.796  1.00  0.00     0.169 HD
HETATM   10  O   UNL     1     -10.594  16.278  65.973  1.00  0.00    -0.169 OA
BRANCH   8  11
HETATM   11  C   UNL     1      -8.049  17.558  66.912  1.00  0.00     0.127 A 
HETATM   12  N   UNL     1      -8.422  18.898  66.351  1.00  0.00    -0.250 N 
HETATM   13  N   UNL     1      -7.313  19.347  65.447  1.00  0.00    -0.183 NA
HETATM   14  C   UNL     1      -6.255  18.285  65.449  1.00  0.00     0.142 A 
HETATM   15  C   UNL     1      -6.710  17.179  66.355  1.00  0.00     0.071 A 
BRANCH  12  16
HETATM   16  C   UNL     1      -9.683  19.657  66.643  1.00  0.00     0.104 C 
HETATM   17  C   UNL     1      -9.925  20.212  68.014  1.00  0.00     0.034 C 
HETATM   18  C   UNL     1     -10.703  19.860  65.561  1.00  0.00     0.034 C 
ENDBRANCH  12  16
ENDBRANCH   8  11
ENDBRANCH   1   7
BRANCH   3  19
HETATM   19  C   UNL     1     -12.005  12.050  70.225  1.00  0.00    -0.008 A 
HETATM   20  C   UNL     1     -12.968  11.834  71.354  1.00  0.00     0.014 A 
HETATM   21  C   UNL     1     -13.149  10.462  71.933  1.00  0.00     0.001 A 
HETATM   22  C   UNL     1     -12.367   9.306  71.383  1.00  0.00     0.000 A 
HETATM   23  C   UNL     1     -11.404   9.523  70.253  1.00  0.00     0.001 A 
HETATM   24  C   UNL     1     -11.223  10.895  69.674  1.00  0.00     0.014 A 
ENDBRANCH   3  19
TORSDOF 4
ENDMDL
MODEL 5
REMARK VINA RESULT:      -6.7      3.574      9.361
REMARK  4 active torsions:
REMARK  status: ('A' for Active; 'I' for Inactive)
REMARK    1  A    between atoms: C_2  and  N_4 
REMARK    2  A    between atoms: C_8  and  N_9 
REMARK       I    between atoms: N_9  and  C_10 
REMARK    3  A    between atoms: C_10  and  C_12 
REMARK    4  A    between atoms: C_14  and  C_15 
ROOT
HETATM    1  C   UNL     1     -10.939  14.737  67.295  1.00  0.00     0.133 A 
HETATM    2  C   UNL     1      -9.990  15.792  67.782  1.00  0.00     0.069 A 
HETATM    3  C   UNL     1      -9.630  16.664  66.616  1.00  0.00     0.062 A 
HETATM    4  N   UNL     1     -10.357  16.148  65.409  1.00  0.00    -0.277 N 
HETATM    5  N   UNL     1     -11.166  14.957  65.829  1.00  0.00    -0.170 NA
HETATM    6  H   UNL     1     -10.311  16.525  64.500  1.00  0.00     0.189 HD
ENDROOT
BRANCH   1   7
HETATM    7  C   UNL     1     -11.554  13.652  68.130  1.00  0.00     0.211 C 
HETATM    8  N   UNL     1     -11.520  13.746  69.627  1.00  0.00    -0.318 N 
HETATM    9  H   UNL     1     -11.094  14.520  70.061  1.00  0.00     0.169 HD
HETATM   10  O   UNL     1     -12.202  12.473  67.467  1.00  0.00    -0.169 OA
BRANCH   8  11
HETATM   11  C   UNL     1     -12.135  12.661  70.460  1.00  0.00     0.127 A 
HETATM   12  N   UNL     1     -13.069  12.860  71.616  1.00  0.00    -0.250 N 
HETATM   13  N   UNL     1     -13.435  11.509  72.155  1.00  0.00    -0.183 NA
HETATM   14  C   UNL     1     -12.728  10.475  71.331  1.00  0.00     0.142 A 
HETATM   15  C   UNL     1     -11.924  11.187  70.284  1.00  0.00     0.071 A 
BRANCH  12  16
HETATM   16  C   UNL     1     -13.552  14.180  72.143  1.00  0.00     0.104 C 
HETATM   17  C   UNL     1     -14.776  14.818  71.557  1.00  0.00     0.034 C 
HETATM   18  C   UNL     1     -12.810  14.860  73.255  1.00  0.00     0.034 C 
ENDBRANCH  12  16
ENDBRANCH   8  11
ENDBRANCH   1   7
BRANCH   3  19
HETATM   19  C   UNL     1      -8.706  17.845  66.651  1.00  0.00    -0.008 A 
HETATM   20  C   UNL     1      -9.162  19.137  67.261  1.00  0.00     0.014 A 
HETATM   21  C   UNL     1      -8.238  20.318  67.296  1.00  0.00     0.001 A 
HETATM   22  C   UNL     1      -6.857  20.207  66.720  1.00  0.00     0.000 A 
HETATM   23  C   UNL     1      -6.401  18.915  66.109  1.00  0.00     0.001 A 
HETATM   24  C   UNL     1      -7.325  17.734  66.074  1.00  0.00     0.014 A 
ENDBRANCH   3  19
TORSDOF 4
ENDMDL
MODEL 6
REMARK VINA RESULT:      -6.6      5.496      7.282
REMARK  4 active torsions:
REMARK  status: ('A' for Active; 'I' for Inactive)
REMARK    1  A    between atoms: C_2  and  N_4 
REMARK    2  A    between atoms: C_8  and  N_9 
REMARK       I    between atoms: N_9  and  C_10 
REMARK    3  A    between atoms: C_10  and  C_12 
REMARK    4  A    between atoms: C_14  and  C_15 
ROOT
HETATM    1  C   UNL     1     -11.132  14.716  65.531  1.00  0.00     0.133 A 
HETATM    2  C   UNL     1     -10.327  13.564  66.057  1.00  0.00     0.069 A 
HETATM    3  C   UNL     1     -11.057  12.298  65.722  1.00  0.00     0.062 A 
HETATM    4  N   UNL     1     -12.313  12.666  64.990  1.00  0.00    -0.277 N 
HETATM    5  N   UNL     1     -12.360  14.161  64.871  1.00  0.00    -0.170 NA
HETATM    6  H   UNL     1     -12.989  12.037  64.647  1.00  0.00     0.189 HD
ENDROOT
BRANCH   1   7
HETATM    7  C   UNL     1     -10.772  16.168  65.644  1.00  0.00     0.211 C 
HETATM    8  N   UNL     1     -10.075  16.674  66.873  1.00  0.00    -0.318 N 
HETATM    9  H   UNL     1      -9.854  16.053  67.604  1.00  0.00     0.169 HD
HETATM   10  O   UNL     1     -11.110  17.114  64.530  1.00  0.00    -0.169 OA
BRANCH   8  11
HETATM   11  C   UNL     1      -9.716  18.126  66.986  1.00  0.00     0.127 A 
HETATM   12  N   UNL     1      -8.330  18.698  66.926  1.00  0.00    -0.250 N 
HETATM   13  N   UNL     1      -8.436  20.186  67.081  1.00  0.00    -0.183 NA
HETATM   14  C   UNL     1      -9.886  20.534  67.237  1.00  0.00     0.142 A 
HETATM   15  C   UNL     1     -10.677  19.260  67.178  1.00  0.00     0.071 A 
BRANCH  12  16
HETATM   16  C   UNL     1      -7.061  17.919  66.742  1.00  0.00     0.104 C 
HETATM   17  C   UNL     1      -6.277  18.051  65.471  1.00  0.00     0.034 C 
HETATM   18  C   UNL     1      -6.578  17.008  67.831  1.00  0.00     0.034 C 
ENDBRANCH  12  16
ENDBRANCH   8  11
ENDBRANCH   1   7
BRANCH   3  19
HETATM   19  C   UNL     1     -10.610  10.907  66.061  1.00  0.00    -0.008 A 
HETATM   20  C   UNL     1      -9.812  10.113  65.070  1.00  0.00     0.014 A 
HETATM   21  C   UNL     1      -9.364   8.722  65.408  1.00  0.00     0.001 A 
HETATM   22  C   UNL     1      -9.715   8.125  66.739  1.00  0.00     0.000 A 
HETATM   23  C   UNL     1     -10.513   8.918  67.730  1.00  0.00     0.001 A 
HETATM   24  C   UNL     1     -10.960  10.309  67.392  1.00  0.00     0.014 A 
ENDBRANCH   3  19
TORSDOF 4
ENDMDL
MODEL 7
REMARK VINA RESULT:      -6.6      5.559      8.582
REMARK  4 active torsions:
REMARK  status: ('A' for Active; 'I' for Inactive)
REMARK    1  A    between atoms: C_2  and  N_4 
REMARK    2  A    between atoms: C_8  and  N_9 
REMARK       I    between atoms: N_9  and  C_10 
REMARK    3  A    between atoms: C_10  and  C_12 
REMARK    4  A    between atoms: C_14  and  C_15 
ROOT
HETATM    1  C   UNL     1      -9.946  16.688  67.813  1.00  0.00     0.133 A 
HETATM    2  C   UNL     1     -10.477  16.383  69.182  1.00  0.00     0.069 A 
HETATM    3  C   UNL     1     -11.501  15.295  69.050  1.00  0.00     0.062 A 
HETATM    4  N   UNL     1     -11.603  14.928  67.599  1.00  0.00    -0.277 N 
HETATM    5  N   UNL     1     -10.642  15.789  66.835  1.00  0.00    -0.170 NA
HETATM    6  H   UNL     1     -12.197  14.242  67.216  1.00  0.00     0.189 HD
ENDROOT
BRANCH   1   7
HETATM    7  C   UNL     1      -8.902  17.713  67.480  1.00  0.00     0.211 C 
HETATM    8  N   UNL     1      -8.324  18.574  68.565  1.00  0.00    -0.318 N 
HETATM    9  H   UNL     1      -8.631  18.467  69.494  1.00  0.00     0.169 HD
HETATM   10  O   UNL     1      -8.435  17.876  66.064  1.00  0.00    -0.169 OA
BRANCH   8  11
HETATM   11  C   UNL     1      -7.280  19.599  68.231  1.00  0.00     0.127 A 
HETATM   12  N   UNL     1      -6.050  19.896  69.036  1.00  0.00    -0.250 N 
HETATM   13  N   UNL     1      -5.292  20.987  68.337  1.00  0.00    -0.183 NA
HETATM   14  C   UNL     1      -6.055  21.363  67.102  1.00  0.00     0.142 A 
HETATM   15  C   UNL     1      -7.284  20.504  67.037  1.00  0.00     0.071 A 
BRANCH  12  16
HETATM   16  C   UNL     1      -5.647  19.222  70.314  1.00  0.00     0.104 C 
HETATM   17  C   UNL     1      -5.286  17.767  70.313  1.00  0.00     0.034 C 
HETATM   18  C   UNL     1      -5.605  20.005  71.593  1.00  0.00     0.034 C 
ENDBRANCH  12  16
ENDBRANCH   8  11
ENDBRANCH   1   7
BRANCH   3  19
HETATM   19  C   UNL     1     -12.286  14.682  70.172  1.00  0.00    -0.008 A 
HETATM   20  C   UNL     1     -12.212  13.204  70.419  1.00  0.00     0.014 A 
HETATM   21  C   UNL     1     -12.996  12.591  71.541  1.00  0.00     0.001 A 
HETATM   22  C   UNL     1     -13.855  13.455  72.416  1.00  0.00     0.000 A 
HETATM   23  C   UNL     1     -13.928  14.933  72.169  1.00  0.00     0.001 A 
HETATM   24  C   UNL     1     -13.144  15.546  71.048  1.00  0.00     0.014 A 
ENDBRANCH   3  19
TORSDOF 4
ENDMDL
MODEL 8
REMARK VINA RESULT:      -6.5      5.345     11.384
REMARK  4 active torsions:
REMARK  status: ('A' for Active; 'I' for Inactive)
REMARK    1  A    between atoms: C_2  and  N_4 
REMARK    2  A    between atoms: C_8  and  N_9 
REMARK       I    between atoms: N_9  and  C_10 
REMARK    3  A    between atoms: C_10  and  C_12 
REMARK    4  A    between atoms: C_14  and  C_15 
ROOT
HETATM    1  C   UNL     1     -10.083  17.790  67.439  1.00  0.00     0.133 A 
HETATM    2  C   UNL     1      -8.639  18.000  67.090  1.00  0.00     0.069 A 
HETATM    3  C   UNL     1      -8.434  19.462  66.824  1.00  0.00     0.062 A 
HETATM    4  N   UNL     1      -9.752  20.155  67.008  1.00  0.00    -0.277 N 
HETATM    5  N   UNL     1     -10.771  19.122  67.388  1.00  0.00    -0.170 NA
HETATM    6  H   UNL     1      -9.919  21.120  66.898  1.00  0.00     0.189 HD
ENDROOT
BRANCH   1   7
HETATM    7  C   UNL     1     -10.726  16.478  67.778  1.00  0.00     0.211 C 
HETATM    8  N   UNL     1     -10.237  15.214  67.134  1.00  0.00    -0.318 N 
HETATM    9  H   UNL     1      -9.495  15.246  66.489  1.00  0.00     0.169 HD
HETATM   10  O   UNL     1     -11.857  16.429  68.762  1.00  0.00    -0.169 OA
BRANCH   8  11
HETATM   11  C   UNL     1     -10.881  13.902  67.475  1.00  0.00     0.127 A 
HETATM   12  N   UNL     1     -11.554  12.974  66.507  1.00  0.00    -0.250 N 
HETATM   13  N   UNL     1     -12.053  11.787  67.276  1.00  0.00    -0.183 NA
HETATM   14  C   UNL     1     -11.690  11.981  68.718  1.00  0.00     0.142 A 
HETATM   15  C   UNL     1     -10.965  13.289  68.840  1.00  0.00     0.071 A 
BRANCH  12  16
HETATM   16  C   UNL     1     -11.701  13.193  65.030  1.00  0.00     0.104 C 
HETATM   17  C   UNL     1     -11.270  12.129  64.067  1.00  0.00     0.034 C 
HETATM   18  C   UNL     1     -12.280  14.479  64.519  1.00  0.00     0.034 C 
ENDBRANCH  12  16
ENDBRANCH   8  11
ENDBRANCH   1   7
BRANCH   3  19
HETATM   19  C   UNL     1      -7.140  20.115  66.441  1.00  0.00    -0.008 A 
HETATM   20  C   UNL     1      -6.389  20.939  67.446  1.00  0.00     0.014 A 
HETATM   21  C   UNL     1      -5.095  21.592  67.063  1.00  0.00     0.001 A 
HETATM   22  C   UNL     1      -4.550  21.423  65.676  1.00  0.00     0.000 A 
HETATM   23  C   UNL     1      -5.301  20.599  64.671  1.00  0.00     0.001 A 
HETATM   24  C   UNL     1      -6.595  19.946  65.054  1.00  0.00     0.014 A 
ENDBRANCH   3  19
TORSDOF 4
ENDMDL
MODEL 9
REMARK VINA RESULT:      -6.5     19.749     21.816
REMARK  4 active torsions:
REMARK  status: ('A' for Active; 'I' for Inactive)
REMARK    1  A    between atoms: C_2  and  N_4 
REMARK    2  A    between atoms: C_8  and  N_9 
REMARK       I    between atoms: N_9  and  C_10 
REMARK    3  A    between atoms: C_10  and  C_12 
REMARK    4  A    between atoms: C_14  and  C_15 
ROOT
HETATM    1  C   UNL     1     -22.047   5.362  53.164  1.00  0.00     0.133 A 
HETATM    2  C   UNL     1     -20.637   5.868  53.090  1.00  0.00     0.069 A 
HETATM    3  C   UNL     1     -20.683   7.313  52.694  1.00  0.00     0.062 A 
HETATM    4  N   UNL     1     -22.122   7.701  52.523  1.00  0.00    -0.277 N 
HETATM    5  N   UNL     1     -22.965   6.495  52.813  1.00  0.00    -0.170 NA
HETATM    6  H   UNL     1     -22.455   8.592  52.266  1.00  0.00     0.189 HD
ENDROOT
BRANCH   1   7
HETATM    7  C   UNL     1     -22.466   3.967  53.525  1.00  0.00     0.211 C 
HETATM    8  N   UNL     1     -22.565   3.563  54.966  1.00  0.00    -0.318 N 
HETATM    9  H   UNL     1     -22.356   4.213  55.675  1.00  0.00     0.169 HD
HETATM   10  O   UNL     1     -22.785   2.977  52.445  1.00  0.00    -0.169 OA
BRANCH   8  11
HETATM   11  C   UNL     1     -22.984   2.168  55.326  1.00  0.00     0.127 A 
HETATM   12  N   UNL     1     -22.074   0.985  55.473  1.00  0.00    -0.250 N 
HETATM   13  N   UNL     1     -22.913  -0.202  55.840  1.00  0.00    -0.183 NA
HETATM   14  C   UNL     1     -24.341   0.246  55.920  1.00  0.00     0.142 A 
HETATM   15  C   UNL     1     -24.385   1.712  55.602  1.00  0.00     0.071 A 
BRANCH  12  16
HETATM   16  C   UNL     1     -20.585   0.989  55.287  1.00  0.00     0.104 C 
HETATM   17  C   UNL     1     -20.002   1.105  53.910  1.00  0.00     0.034 C 
HETATM   18  C   UNL     1     -19.680   0.878  56.478  1.00  0.00     0.034 C 
ENDBRANCH  12  16
ENDBRANCH   8  11
ENDBRANCH   1   7
BRANCH   3  19
HETATM   19  C   UNL     1     -19.499   8.213  52.502  1.00  0.00    -0.008 A 
HETATM   20  C   UNL     1     -18.615   8.548  53.667  1.00  0.00     0.014 A 
HETATM   21  C   UNL     1     -17.430   9.448  53.475  1.00  0.00     0.001 A 
HETATM   22  C   UNL     1     -17.130  10.014  52.119  1.00  0.00     0.000 A 
HETATM   23  C   UNL     1     -18.013   9.679  50.954  1.00  0.00     0.001 A 
HETATM   24  C   UNL     1     -19.198   8.779  51.146  1.00  0.00     0.014 A 
ENDBRANCH   3  19
TORSDOF 4
ENDMDL
