MODEL 1
REMARK VINA RESULT:      -6.3      0.000      0.000
REMARK  4 active torsions:
REMARK  status: ('A' for Active; 'I' for Inactive)
REMARK    1  A    between atoms: C_2  and  N_3 
REMARK       I    between atoms: N_3  and  C_4 
REMARK    2  A    between atoms: N_3  and  C_13 
REMARK    3  A    between atoms: C_4  and  C_6 
REMARK    4  A    between atoms: C_6  and  N_7 
ROOT
HETATM    1  N   UNL     1      -9.808  16.795  67.458  1.00  0.00    -0.328 N 
HETATM    2  C   UNL     1      -8.343  16.520  67.288  1.00  0.00     0.175 C 
HETATM    3  O   UNL     1      -7.686  15.435  68.088  1.00  0.00    -0.175 OA
ENDROOT
BRANCH   1   4
HETATM    4  C   UNL     1     -10.465  17.881  66.657  1.00  0.00     0.126 C 
HETATM    5  C   UNL     1     -10.611  19.256  67.238  1.00  0.00     0.031 C 
ENDBRANCH   1   4
BRANCH   1   6
HETATM    6  C   UNL     1     -10.615  15.985  68.428  1.00  0.00     0.036 A 
HETATM    7  C   UNL     1     -11.159  14.648  68.018  1.00  0.00     0.030 A 
HETATM    8  C   UNL     1     -11.967  13.838  68.988  1.00  0.00     0.010 A 
HETATM    9  C   UNL     1     -12.230  14.364  70.368  1.00  0.00    -0.052 A 
HETATM   10  C   UNL     1     -11.686  15.700  70.777  1.00  0.00    -0.050 A 
HETATM   11  C   UNL     1     -13.038  13.554  71.337  1.00  0.00     0.039 A 
HETATM   12  C   UNL     1     -10.879  16.511  69.807  1.00  0.00     0.037 A 
HETATM   13  C   UNL     1     -11.950  16.226  72.157  1.00  0.00     0.039 A 
HETATM   14  C   UNL     1     -12.757  15.416  73.127  1.00  0.00     0.005 A 
HETATM   15  C   UNL     1     -13.301  14.079  72.717  1.00  0.00     0.005 A 
ENDBRANCH   1   6
BRANCH   2  16
HETATM   16  C   UNL     1      -7.535  17.331  66.318  1.00  0.00     0.200 C 
BRANCH  16  17
HETATM   17  N   UNL     1      -7.048  18.696  66.704  1.00  0.00    -0.401 N 
HETATM   18  C   UNL     1      -6.927  19.067  68.152  1.00  0.00     0.143 A 
HETATM   19  C   UNL     1      -6.440  20.432  68.538  1.00  0.00     0.187 A 
HETATM   20  O   UNL     1      -6.075  21.426  67.476  1.00  0.00    -0.388 OA
HETATM   21  C   UNL     1      -6.196  21.055  66.028  1.00  0.00     0.187 A 
HETATM   22  C   UNL     1      -6.683  19.690  65.642  1.00  0.00     0.143 A 
ENDBRANCH  16  17
ENDBRANCH   2  16
TORSDOF 4
ENDMDL
MODEL 2
REMARK VINA RESULT:      -5.9      3.115      7.824
REMARK  4 active torsions:
REMARK  status: ('A' for Active; 'I' for Inactive)
REMARK    1  A    between atoms: C_2  and  N_3 
REMARK       I    between atoms: N_3  and  C_4 
REMARK    2  A    between atoms: N_3  and  C_13 
REMARK    3  A    between atoms: C_4  and  C_6 
REMARK    4  A    between atoms: C_6  and  N_7 
ROOT
HETATM    1  N   UNL     1     -10.575  15.951  66.827  1.00  0.00    -0.328 N 
HETATM    2  C   UNL     1     -11.220  15.540  65.536  1.00  0.00     0.175 C 
HETATM    3  O   UNL     1     -11.010  16.360  64.298  1.00  0.00    -0.175 OA
ENDROOT
BRANCH   1   4
HETATM    4  C   UNL     1     -10.785  15.131  68.065  1.00  0.00     0.126 C 
HETATM    5  C   UNL     1     -11.765  15.583  69.107  1.00  0.00     0.031 C 
ENDBRANCH   1   4
BRANCH   1   6
HETATM    6  C   UNL     1      -9.721  17.182  66.879  1.00  0.00     0.036 A 
HETATM    7  C   UNL     1     -10.283  18.464  67.420  1.00  0.00     0.030 A 
HETATM    8  C   UNL     1      -9.429  19.695  67.472  1.00  0.00     0.010 A 
HETATM    9  C   UNL     1      -8.011  19.646  66.984  1.00  0.00    -0.052 A 
HETATM   10  C   UNL     1      -7.449  18.364  66.444  1.00  0.00    -0.050 A 
HETATM   11  C   UNL     1      -7.157  20.877  67.036  1.00  0.00     0.039 A 
HETATM   12  C   UNL     1      -8.303  17.133  66.391  1.00  0.00     0.037 A 
HETATM   13  C   UNL     1      -6.031  18.315  65.955  1.00  0.00     0.039 A 
HETATM   14  C   UNL     1      -5.176  19.546  66.008  1.00  0.00     0.005 A 
HETATM   15  C   UNL     1      -5.739  20.828  66.548  1.00  0.00     0.005 A 
ENDBRANCH   1   6
BRANCH   2  16
HETATM   16  C   UNL     1     -12.075  14.308  65.484  1.00  0.00     0.200 C 
BRANCH  16  17
HETATM   17  N   UNL     1     -11.456  12.979  65.165  1.00  0.00    -0.401 N 
HETATM   18  C   UNL     1     -11.203  12.593  63.738  1.00  0.00     0.143 A 
HETATM   19  C   UNL     1     -10.585  11.264  63.419  1.00  0.00     0.187 A 
HETATM   20  O   UNL     1     -10.220  10.321  64.527  1.00  0.00    -0.388 OA
HETATM   21  C   UNL     1     -10.473  10.708  65.954  1.00  0.00     0.187 A 
HETATM   22  C   UNL     1     -11.091  12.037  66.273  1.00  0.00     0.143 A 
ENDBRANCH  16  17
ENDBRANCH   2  16
TORSDOF 4
ENDMDL
MODEL 3
REMARK VINA RESULT:      -5.9      2.535      3.969
REMARK  4 active torsions:
REMARK  status: ('A' for Active; 'I' for Inactive)
REMARK    1  A    between atoms: C_2  and  N_3 
REMARK       I    between atoms: N_3  and  C_4 
REMARK    2  A    between atoms: N_3  and  C_13 
REMARK    3  A    between atoms: C_4  and  C_6 
REMARK    4  A    between atoms: C_6  and  N_7 
ROOT
HETATM    1  N   UNL     1     -10.488  14.258  67.587  1.00  0.00    -0.328 N 
HETATM    2  C   UNL     1      -9.331  15.146  67.939  1.00  0.00     0.175 C 
HETATM    3  O   UNL     1      -8.760  15.118  69.326  1.00  0.00    -0.175 OA
ENDROOT
BRANCH   1   4
HETATM    4  C   UNL     1     -11.060  14.286  66.201  1.00  0.00     0.126 C 
HETATM    5  C   UNL     1     -12.485  13.880  65.969  1.00  0.00     0.031 C 
ENDBRANCH   1   4
BRANCH   1   6
HETATM    6  C   UNL     1     -11.074  13.344  68.622  1.00  0.00     0.036 A 
HETATM    7  C   UNL     1     -12.013  13.888  69.658  1.00  0.00     0.030 A 
HETATM    8  C   UNL     1     -12.599  12.973  70.693  1.00  0.00     0.010 A 
HETATM    9  C   UNL     1     -12.247  11.515  70.691  1.00  0.00    -0.052 A 
HETATM   10  C   UNL     1     -11.308  10.972  69.655  1.00  0.00    -0.050 A 
HETATM   11  C   UNL     1     -12.833  10.601  71.726  1.00  0.00     0.039 A 
HETATM   12  C   UNL     1     -10.722  11.886  68.621  1.00  0.00     0.037 A 
HETATM   13  C   UNL     1     -10.955   9.514  69.654  1.00  0.00     0.039 A 
HETATM   14  C   UNL     1     -11.541   8.600  70.689  1.00  0.00     0.005 A 
HETATM   15  C   UNL     1     -12.480   9.143  71.724  1.00  0.00     0.005 A 
ENDBRANCH   1   6
BRANCH   2  16
HETATM   16  C   UNL     1      -8.745  16.060  66.905  1.00  0.00     0.200 C 
BRANCH  16  17
HETATM   17  N   UNL     1      -9.008  17.535  66.972  1.00  0.00    -0.401 N 
HETATM   18  C   UNL     1     -10.243  18.106  66.341  1.00  0.00     0.143 A 
HETATM   19  C   UNL     1     -10.507  19.582  66.409  1.00  0.00     0.187 A 
HETATM   20  O   UNL     1      -9.534  20.486  67.107  1.00  0.00    -0.388 OA
HETATM   21  C   UNL     1      -8.299  19.914  67.738  1.00  0.00     0.187 A 
HETATM   22  C   UNL     1      -8.036  18.439  67.671  1.00  0.00     0.143 A 
ENDBRANCH  16  17
ENDBRANCH   2  16
TORSDOF 4
ENDMDL
MODEL 4
REMARK VINA RESULT:      -5.7      3.270      4.681
REMARK  4 active torsions:
REMARK  status: ('A' for Active; 'I' for Inactive)
REMARK    1  A    between atoms: C_2  and  N_3 
REMARK       I    between atoms: N_3  and  C_4 
REMARK    2  A    between atoms: N_3  and  C_13 
REMARK    3  A    between atoms: C_4  and  C_6 
REMARK    4  A    between atoms: C_6  and  N_7 
ROOT
HETATM    1  N   UNL     1     -11.095  13.034  67.408  1.00  0.00    -0.328 N 
HETATM    2  C   UNL     1     -10.518  14.391  67.683  1.00  0.00     0.175 C 
HETATM    3  O   UNL     1      -9.761  14.641  68.953  1.00  0.00    -0.175 OA
ENDROOT
BRANCH   1   4
HETATM    4  C   UNL     1     -11.853  12.785  66.137  1.00  0.00     0.126 C 
HETATM    5  C   UNL     1     -11.241  11.952  65.050  1.00  0.00     0.031 C 
ENDBRANCH   1   4
BRANCH   1   6
HETATM    6  C   UNL     1     -10.914  11.926  68.402  1.00  0.00     0.036 A 
HETATM    7  C   UNL     1      -9.621  11.167  68.453  1.00  0.00     0.030 A 
HETATM    8  C   UNL     1      -9.440  10.059  69.448  1.00  0.00     0.010 A 
HETATM    9  C   UNL     1     -10.552   9.711  70.392  1.00  0.00    -0.052 A 
HETATM   10  C   UNL     1     -11.845  10.470  70.342  1.00  0.00    -0.050 A 
HETATM   11  C   UNL     1     -10.371   8.603  71.387  1.00  0.00     0.039 A 
HETATM   12  C   UNL     1     -12.026  11.578  69.347  1.00  0.00     0.037 A 
HETATM   13  C   UNL     1     -12.957  10.121  71.287  1.00  0.00     0.039 A 
HETATM   14  C   UNL     1     -12.776   9.013  72.281  1.00  0.00     0.005 A 
HETATM   15  C   UNL     1     -11.483   8.254  72.332  1.00  0.00     0.005 A 
ENDBRANCH   1   6
BRANCH   2  16
HETATM   16  C   UNL     1     -10.699  15.499  66.688  1.00  0.00     0.200 C 
BRANCH  16  17
HETATM   17  N   UNL     1      -9.836  16.723  66.763  1.00  0.00    -0.401 N 
HETATM   18  C   UNL     1     -10.369  17.980  67.385  1.00  0.00     0.143 A 
HETATM   19  C   UNL     1      -9.505  19.204  67.460  1.00  0.00     0.187 A 
HETATM   20  O   UNL     1      -8.108  19.171  66.914  1.00  0.00    -0.388 OA
HETATM   21  C   UNL     1      -7.575  17.915  66.292  1.00  0.00     0.187 A 
HETATM   22  C   UNL     1      -8.439  16.691  66.217  1.00  0.00     0.143 A 
ENDBRANCH  16  17
ENDBRANCH   2  16
TORSDOF 4
ENDMDL
MODEL 5
REMARK VINA RESULT:      -5.6      2.640      7.450
REMARK  4 active torsions:
REMARK  status: ('A' for Active; 'I' for Inactive)
REMARK    1  A    between atoms: C_2  and  N_3 
REMARK       I    between atoms: N_3  and  C_4 
REMARK    2  A    between atoms: N_3  and  C_13 
REMARK    3  A    between atoms: C_4  and  C_6 
REMARK    4  A    between atoms: C_6  and  N_7 
ROOT
HETATM    1  N   UNL     1      -9.434  17.655  67.480  1.00  0.00    -0.328 N 
HETATM    2  C   UNL     1      -9.860  16.508  68.348  1.00  0.00     0.175 C 
HETATM    3  O   UNL     1      -8.881  15.879  69.295  1.00  0.00    -0.175 OA
ENDROOT
BRANCH   1   4
HETATM    4  C   UNL     1     -10.413  18.283  66.533  1.00  0.00     0.126 C 
HETATM    5  C   UNL     1     -10.364  19.760  66.275  1.00  0.00     0.031 C 
ENDBRANCH   1   4
BRANCH   1   6
HETATM    6  C   UNL     1      -8.028  18.173  67.559  1.00  0.00     0.036 A 
HETATM    7  C   UNL     1      -7.032  17.803  66.500  1.00  0.00     0.030 A 
HETATM    8  C   UNL     1      -5.627  18.321  66.579  1.00  0.00     0.010 A 
HETATM    9  C   UNL     1      -5.218  19.209  67.716  1.00  0.00    -0.052 A 
HETATM   10  C   UNL     1      -6.214  19.579  68.775  1.00  0.00    -0.050 A 
HETATM   11  C   UNL     1      -3.812  19.727  67.795  1.00  0.00     0.039 A 
HETATM   12  C   UNL     1      -7.619  19.061  68.696  1.00  0.00     0.037 A 
HETATM   13  C   UNL     1      -5.804  20.467  69.912  1.00  0.00     0.039 A 
HETATM   14  C   UNL     1      -4.399  20.985  69.991  1.00  0.00     0.005 A 
HETATM   15  C   UNL     1      -3.403  20.615  68.932  1.00  0.00     0.005 A 
ENDBRANCH   1   6
BRANCH   2  16
HETATM   16  C   UNL     1     -11.266  15.990  68.269  1.00  0.00     0.200 C 
BRANCH  16  17
HETATM   17  N   UNL     1     -11.522  14.580  67.826  1.00  0.00    -0.401 N 
HETATM   18  C   UNL     1     -11.512  13.465  68.830  1.00  0.00     0.143 A 
HETATM   19  C   UNL     1     -11.767  12.055  68.387  1.00  0.00     0.187 A 
HETATM   20  O   UNL     1     -12.034  11.760  66.941  1.00  0.00    -0.388 OA
HETATM   21  C   UNL     1     -12.044  12.875  65.937  1.00  0.00     0.187 A 
HETATM   22  C   UNL     1     -11.788  14.285  66.380  1.00  0.00     0.143 A 
ENDBRANCH  16  17
ENDBRANCH   2  16
TORSDOF 4
ENDMDL
MODEL 6
REMARK VINA RESULT:      -5.5      5.899      7.966
REMARK  4 active torsions:
REMARK  status: ('A' for Active; 'I' for Inactive)
REMARK    1  A    between atoms: C_2  and  N_3 
REMARK       I    between atoms: N_3  and  C_4 
REMARK    2  A    between atoms: N_3  and  C_13 
REMARK    3  A    between atoms: C_4  and  C_6 
REMARK    4  A    between atoms: C_6  and  N_7 
ROOT
HETATM    1  N   UNL     1      -9.685  10.616  68.434  1.00  0.00    -0.328 N 
HETATM    2  C   UNL     1     -10.804  11.525  68.022  1.00  0.00     0.175 C 
HETATM    3  O   UNL     1     -12.224  11.159  68.340  1.00  0.00    -0.175 OA
ENDROOT
BRANCH   1   4
HETATM    4  C   UNL     1      -8.266  10.982  68.116  1.00  0.00     0.126 C 
HETATM    5  C   UNL     1      -7.628  10.486  66.852  1.00  0.00     0.031 C 
ENDBRANCH   1   4
BRANCH   1   6
HETATM    6  C   UNL     1      -9.985   9.340  69.163  1.00  0.00     0.036 A 
HETATM    7  C   UNL     1     -10.321   8.097  68.394  1.00  0.00     0.030 A 
HETATM    8  C   UNL     1     -10.621   6.822  69.124  1.00  0.00     0.010 A 
HETATM    9  C   UNL     1     -10.584   6.789  70.623  1.00  0.00    -0.052 A 
HETATM   10  C   UNL     1     -10.248   8.032  71.392  1.00  0.00    -0.050 A 
HETATM   11  C   UNL     1     -10.884   5.513  71.353  1.00  0.00     0.039 A 
HETATM   12  C   UNL     1      -9.948   9.308  70.663  1.00  0.00     0.037 A 
HETATM   13  C   UNL     1     -10.212   7.999  72.892  1.00  0.00     0.039 A 
HETATM   14  C   UNL     1     -10.512   6.723  73.621  1.00  0.00     0.005 A 
HETATM   15  C   UNL     1     -10.848   5.480  72.852  1.00  0.00     0.005 A 
ENDBRANCH   1   6
BRANCH   2  16
HETATM   16  C   UNL     1     -10.505  12.801  67.292  1.00  0.00     0.200 C 
BRANCH  16  17
HETATM   17  N   UNL     1     -11.185  13.097  65.988  1.00  0.00    -0.401 N 
HETATM   18  C   UNL     1     -11.619  14.497  65.670  1.00  0.00     0.143 A 
HETATM   19  C   UNL     1     -12.299  14.793  64.366  1.00  0.00     0.187 A 
HETATM   20  O   UNL     1     -12.545  13.689  63.381  1.00  0.00    -0.388 OA
HETATM   21  C   UNL     1     -12.111  12.289  63.699  1.00  0.00     0.187 A 
HETATM   22  C   UNL     1     -11.430  11.993  65.003  1.00  0.00     0.143 A 
ENDBRANCH  16  17
ENDBRANCH   2  16
TORSDOF 4
ENDMDL
MODEL 7
REMARK VINA RESULT:      -5.5      2.432      7.611
REMARK  4 active torsions:
REMARK  status: ('A' for Active; 'I' for Inactive)
REMARK    1  A    between atoms: C_2  and  N_3 
REMARK       I    between atoms: N_3  and  C_4 
REMARK    2  A    between atoms: N_3  and  C_13 
REMARK    3  A    between atoms: C_4  and  C_6 
REMARK    4  A    between atoms: C_6  and  N_7 
ROOT
HETATM    1  N   UNL     1      -9.415  15.341  68.146  1.00  0.00    -0.328 N 
HETATM    2  C   UNL     1     -10.863  15.608  68.433  1.00  0.00     0.175 C 
HETATM    3  O   UNL     1     -11.400  17.006  68.340  1.00  0.00    -0.175 OA
ENDROOT
BRANCH   1   4
HETATM    4  C   UNL     1      -8.877  13.943  68.239  1.00  0.00     0.126 C 
HETATM    5  C   UNL     1      -8.857  13.066  67.022  1.00  0.00     0.031 C 
ENDBRANCH   1   4
BRANCH   1   6
HETATM    6  C   UNL     1      -8.504  16.471  67.768  1.00  0.00     0.036 A 
HETATM    7  C   UNL     1      -8.054  16.627  66.345  1.00  0.00     0.030 A 
HETATM    8  C   UNL     1      -7.143  17.758  65.967  1.00  0.00     0.010 A 
HETATM    9  C   UNL     1      -6.682  18.731  67.011  1.00  0.00    -0.052 A 
HETATM   10  C   UNL     1      -7.132  18.575  68.433  1.00  0.00    -0.050 A 
HETATM   11  C   UNL     1      -5.771  19.861  66.632  1.00  0.00     0.039 A 
HETATM   12  C   UNL     1      -8.043  17.445  68.812  1.00  0.00     0.037 A 
HETATM   13  C   UNL     1      -6.671  19.548  69.477  1.00  0.00     0.039 A 
HETATM   14  C   UNL     1      -5.760  20.678  69.099  1.00  0.00     0.005 A 
HETATM   15  C   UNL     1      -5.310  20.835  67.676  1.00  0.00     0.005 A 
ENDBRANCH   1   6
BRANCH   2  16
HETATM   16  C   UNL     1     -11.773  14.478  68.811  1.00  0.00     0.200 C 
BRANCH  16  17
HETATM   17  N   UNL     1     -12.366  14.421  70.188  1.00  0.00    -0.401 N 
HETATM   18  C   UNL     1     -12.705  15.691  70.911  1.00  0.00     0.143 A 
HETATM   19  C   UNL     1     -13.297  15.634  72.288  1.00  0.00     0.187 A 
HETATM   20  O   UNL     1     -13.551  14.308  72.941  1.00  0.00    -0.388 OA
HETATM   21  C   UNL     1     -13.213  13.039  72.218  1.00  0.00     0.187 A 
HETATM   22  C   UNL     1     -12.620  13.095  70.841  1.00  0.00     0.143 A 
ENDBRANCH  16  17
ENDBRANCH   2  16
TORSDOF 4
ENDMDL
MODEL 8
REMARK VINA RESULT:      -5.5      4.544      6.194
REMARK  4 active torsions:
REMARK  status: ('A' for Active; 'I' for Inactive)
REMARK    1  A    between atoms: C_2  and  N_3 
REMARK       I    between atoms: N_3  and  C_4 
REMARK    2  A    between atoms: N_3  and  C_13 
REMARK    3  A    between atoms: C_4  and  C_6 
REMARK    4  A    between atoms: C_6  and  N_7 
ROOT
HETATM    1  N   UNL     1      -9.698  11.831  67.232  1.00  0.00    -0.328 N 
HETATM    2  C   UNL     1     -10.746  12.599  66.482  1.00  0.00     0.175 C 
HETATM    3  O   UNL     1     -12.145  12.066  66.392  1.00  0.00    -0.175 OA
ENDROOT
BRANCH   1   4
HETATM    4  C   UNL     1      -8.299  12.364  67.322  1.00  0.00     0.126 C 
HETATM    5  C   UNL     1      -7.165  11.441  67.656  1.00  0.00     0.031 C 
ENDBRANCH   1   4
BRANCH   1   6
HETATM    6  C   UNL     1     -10.049  10.530  67.891  1.00  0.00     0.036 A 
HETATM    7  C   UNL     1     -10.038   9.259  67.096  1.00  0.00     0.030 A 
HETATM    8  C   UNL     1     -10.389   7.958  67.755  1.00  0.00     0.010 A 
HETATM    9  C   UNL     1     -10.751   7.929  69.211  1.00  0.00    -0.052 A 
HETATM   10  C   UNL     1     -10.763   9.201  70.006  1.00  0.00    -0.050 A 
HETATM   11  C   UNL     1     -11.103   6.628  69.870  1.00  0.00     0.039 A 
HETATM   12  C   UNL     1     -10.412  10.501  69.347  1.00  0.00     0.037 A 
HETATM   13  C   UNL     1     -11.126   9.172  71.461  1.00  0.00     0.039 A 
HETATM   14  C   UNL     1     -11.477   7.871  72.121  1.00  0.00     0.005 A 
HETATM   15  C   UNL     1     -11.465   6.599  71.325  1.00  0.00     0.005 A 
ENDBRANCH   1   6
BRANCH   2  16
HETATM   16  C   UNL     1     -10.395  13.899  65.823  1.00  0.00     0.200 C 
BRANCH  16  17
HETATM   17  N   UNL     1     -10.553  15.188  66.574  1.00  0.00    -0.401 N 
HETATM   18  C   UNL     1     -11.091  15.179  67.974  1.00  0.00     0.143 A 
HETATM   19  C   UNL     1     -11.249  16.467  68.726  1.00  0.00     0.187 A 
HETATM   20  O   UNL     1     -10.870  17.765  68.076  1.00  0.00    -0.388 OA
HETATM   21  C   UNL     1     -10.332  17.775  66.676  1.00  0.00     0.187 A 
HETATM   22  C   UNL     1     -10.174  16.486  65.925  1.00  0.00     0.143 A 
ENDBRANCH  16  17
ENDBRANCH   2  16
TORSDOF 4
ENDMDL
MODEL 9
REMARK VINA RESULT:      -5.5      2.874      4.787
REMARK  4 active torsions:
REMARK  status: ('A' for Active; 'I' for Inactive)
REMARK    1  A    between atoms: C_2  and  N_3 
REMARK       I    between atoms: N_3  and  C_4 
REMARK    2  A    between atoms: N_3  and  C_13 
REMARK    3  A    between atoms: C_4  and  C_6 
REMARK    4  A    between atoms: C_6  and  N_7 
ROOT
HETATM    1  N   UNL     1      -9.964  16.585  67.606  1.00  0.00    -0.328 N 
HETATM    2  C   UNL     1      -8.976  17.661  67.267  1.00  0.00     0.175 C 
HETATM    3  O   UNL     1      -8.280  17.649  65.939  1.00  0.00    -0.175 OA
ENDROOT
BRANCH   1   4
HETATM    4  C   UNL     1     -10.661  16.597  68.935  1.00  0.00     0.126 C 
HETATM    5  C   UNL     1     -11.866  15.732  69.158  1.00  0.00     0.031 C 
ENDBRANCH   1   4
BRANCH   1   6
HETATM    6  C   UNL     1     -10.256  15.496  66.616  1.00  0.00     0.036 A 
HETATM    7  C   UNL     1     -11.117  15.781  65.421  1.00  0.00     0.030 A 
HETATM    8  C   UNL     1     -11.409  14.692  64.431  1.00  0.00     0.010 A 
HETATM    9  C   UNL     1     -10.840  13.319  64.637  1.00  0.00    -0.052 A 
HETATM   10  C   UNL     1      -9.980  13.035  65.832  1.00  0.00    -0.050 A 
HETATM   11  C   UNL     1     -11.133  12.231  63.647  1.00  0.00     0.039 A 
HETATM   12  C   UNL     1      -9.688  14.124  66.822  1.00  0.00     0.037 A 
HETATM   13  C   UNL     1      -9.411  11.662  66.038  1.00  0.00     0.039 A 
HETATM   14  C   UNL     1      -9.703  10.574  65.048  1.00  0.00     0.005 A 
HETATM   15  C   UNL     1     -10.564  10.858  63.853  1.00  0.00     0.005 A 
ENDBRANCH   1   6
BRANCH   2  16
HETATM   16  C   UNL     1      -8.684  18.750  68.257  1.00  0.00     0.200 C 
BRANCH  16  17
HETATM   17  N   UNL     1      -7.341  19.417  68.263  1.00  0.00    -0.401 N 
HETATM   18  C   UNL     1      -6.244  18.888  69.139  1.00  0.00     0.143 A 
HETATM   19  C   UNL     1      -4.901  19.555  69.145  1.00  0.00     0.187 A 
HETATM   20  O   UNL     1      -4.654  20.752  68.276  1.00  0.00    -0.388 OA
HETATM   21  C   UNL     1      -5.750  21.282  67.400  1.00  0.00     0.187 A 
HETATM   22  C   UNL     1      -7.094  20.614  67.394  1.00  0.00     0.143 A 
ENDBRANCH  16  17
ENDBRANCH   2  16
TORSDOF 4
ENDMDL
