MODEL 1
REMARK VINA RESULT:      -0.0      0.000      0.000
REMARK  6 active torsions:
REMARK  status: ('A' for Active; 'I' for Inactive)
REMARK    1  A    between atoms: C_2  and  C_4 
REMARK    2  A    between atoms: C_4  and  C_5 
REMARK    3  A    between atoms: C_5  and  C_6 
REMARK       I    between atoms: C_6  and  N_8 
REMARK    4  A    between atoms: N_8  and  C_9 
REMARK    5  A    between atoms: C_14  and  N_15 
REMARK       I    between atoms: N_15  and  C_16 
REMARK    6  A    between atoms: C_16  and  C_18 
ROOT
HETATM    1  C   UNL     1      -4.307  -4.563   5.162  1.00  0.00     0.060 A 
HETATM    2  C   UNL     1      -5.495  -5.302   5.704  1.00  0.00     0.032 A 
HETATM    3  C   UNL     1      -6.292  -4.716   6.831  1.00  0.00     0.002 A 
HETATM    4  C   UNL     1      -5.901  -3.391   7.417  1.00  0.00     0.002 A 
HETATM    5  C   UNL     1      -4.714  -2.652   6.875  1.00  0.00     0.032 A 
HETATM    6  C   UNL     1      -3.916  -3.238   5.747  1.00  0.00     0.061 A 
ENDROOT
BRANCH   6   7
HETATM    7  N   UNL     1      -2.729  -2.500   5.205  1.00  0.00    -0.332 N 
HETATM    8  C   UNL     1      -2.926  -1.360   4.251  1.00  0.00     0.189 C 
HETATM    9  O   UNL     1      -4.312  -0.958   3.838  1.00  0.00    -0.171 OA
HETATM   10  H   UNL     1      -1.820  -2.763   5.476  1.00  0.00     0.168 HD
BRANCH   8  11
HETATM   11  C   UNL     1      -1.739  -0.621   3.709  1.00  0.00     0.018 A 
HETATM   12  C   UNL     1      -0.422  -0.691   4.424  1.00  0.00     0.016 A 
HETATM   13  C   UNL     1       0.766   0.048   3.882  1.00  0.00     0.007 A 
HETATM   14  C   UNL     1       0.637   0.856   2.625  1.00  0.00    -0.062 A 
HETATM   15  C   UNL     1       1.824   1.595   2.083  1.00  0.00     0.048 C 
HETATM   16  C   UNL     1      -0.680   0.926   1.910  1.00  0.00     0.007 A 
HETATM   17  C   UNL     1      -1.868   0.187   2.452  1.00  0.00     0.016 A 
ENDBRANCH   8  11
ENDBRANCH   6   7
BRANCH   1  18
HETATM   18  N   UNL     1      -3.510  -5.149   4.035  1.00  0.00    -0.336 N 
HETATM   19  C   UNL     1      -3.830  -4.778   2.617  1.00  0.00     0.156 C 
HETATM   20  O   UNL     1      -4.948  -3.820   2.327  1.00  0.00    -0.177 OA
HETATM   21  H   UNL     1      -2.776  -5.778   4.226  1.00  0.00     0.168 HD
BRANCH  19  22
HETATM   22  C   UNL     1      -3.033  -5.364   1.490  1.00  0.00     0.090 C 
BRANCH  22  23
HETATM   23  C   UNL     1      -1.534  -5.322   1.530  1.00  0.00     0.052 C 
BRANCH  23  24
HETATM   24  C   UNL     1      -0.833  -4.146   2.143  1.00  0.00     0.127 C 
HETATM   25  C   UNL     1      -0.341  -3.028   1.272  1.00  0.00     0.052 C 
HETATM   26  O   UNL     1      -0.623  -4.088   3.627  1.00  0.00    -0.226 OA
ENDBRANCH  23  24
ENDBRANCH  22  23
ENDBRANCH  19  22
ENDBRANCH   1  18
TORSDOF 6
ENDMDL
MODEL 2
REMARK VINA RESULT:      -0.0      9.364     11.908
REMARK  6 active torsions:
REMARK  status: ('A' for Active; 'I' for Inactive)
REMARK    1  A    between atoms: C_2  and  C_4 
REMARK    2  A    between atoms: C_4  and  C_5 
REMARK    3  A    between atoms: C_5  and  C_6 
REMARK       I    between atoms: C_6  and  N_8 
REMARK    4  A    between atoms: N_8  and  C_9 
REMARK    5  A    between atoms: C_14  and  N_15 
REMARK       I    between atoms: N_15  and  C_16 
REMARK    6  A    between atoms: C_16  and  C_18 
ROOT
HETATM    1  C   UNL     1       6.341   5.577   3.374  1.00  0.00     0.060 A 
HETATM    2  C   UNL     1       7.676   5.266   3.984  1.00  0.00     0.032 A 
HETATM    3  C   UNL     1       8.408   6.319   4.762  1.00  0.00     0.002 A 
HETATM    4  C   UNL     1       7.805   7.682   4.930  1.00  0.00     0.002 A 
HETATM    5  C   UNL     1       6.471   7.993   4.320  1.00  0.00     0.032 A 
HETATM    6  C   UNL     1       5.739   6.940   3.542  1.00  0.00     0.061 A 
ENDROOT
BRANCH   6   7
HETATM    7  N   UNL     1       4.404   7.251   2.931  1.00  0.00    -0.332 N 
HETATM    8  C   UNL     1       3.170   7.242   3.783  1.00  0.00     0.189 C 
HETATM    9  O   UNL     1       3.269   6.922   5.245  1.00  0.00    -0.171 OA
HETATM   10  H   UNL     1       4.339   7.461   1.972  1.00  0.00     0.168 HD
BRANCH   8  11
HETATM   11  C   UNL     1       1.835   7.553   3.173  1.00  0.00     0.018 A 
HETATM   12  C   UNL     1       1.760   8.296   1.872  1.00  0.00     0.016 A 
HETATM   13  C   UNL     1       0.426   8.607   1.261  1.00  0.00     0.007 A 
HETATM   14  C   UNL     1      -0.834   8.174   1.952  1.00  0.00    -0.062 A 
HETATM   15  C   UNL     1      -2.168   8.484   1.341  1.00  0.00     0.048 C 
HETATM   16  C   UNL     1      -0.759   7.430   3.252  1.00  0.00     0.007 A 
HETATM   17  C   UNL     1       0.576   7.120   3.863  1.00  0.00     0.016 A 
ENDBRANCH   8  11
ENDBRANCH   6   7
BRANCH   1  18
HETATM   18  N   UNL     1       5.609   4.524   2.595  1.00  0.00    -0.336 N 
HETATM   19  C   UNL     1       4.597   3.653   3.280  1.00  0.00     0.156 C 
HETATM   20  O   UNL     1       4.318   3.835   4.742  1.00  0.00    -0.177 OA
HETATM   21  H   UNL     1       5.793   4.405   1.635  1.00  0.00     0.168 HD
BRANCH  19  22
HETATM   22  C   UNL     1       3.865   2.601   2.501  1.00  0.00     0.090 C 
BRANCH  22  23
HETATM   23  C   UNL     1       3.200   2.954   1.204  1.00  0.00     0.052 C 
BRANCH  23  24
HETATM   24  C   UNL     1       2.569   4.303   1.028  1.00  0.00     0.127 C 
HETATM   25  C   UNL     1       1.096   4.477   1.253  1.00  0.00     0.052 C 
HETATM   26  O   UNL     1       3.410   5.478   0.626  1.00  0.00    -0.226 OA
ENDBRANCH  23  24
ENDBRANCH  22  23
ENDBRANCH  19  22
ENDBRANCH   1  18
TORSDOF 6
ENDMDL
MODEL 3
REMARK VINA RESULT:      -0.0      4.074      6.855
REMARK  6 active torsions:
REMARK  status: ('A' for Active; 'I' for Inactive)
REMARK    1  A    between atoms: C_2  and  C_4 
REMARK    2  A    between atoms: C_4  and  C_5 
REMARK    3  A    between atoms: C_5  and  C_6 
REMARK       I    between atoms: C_6  and  N_8 
REMARK    4  A    between atoms: N_8  and  C_9 
REMARK    5  A    between atoms: C_14  and  N_15 
REMARK       I    between atoms: N_15  and  C_16 
REMARK    6  A    between atoms: C_16  and  C_18 
ROOT
HETATM    1  C   UNL     1      -1.115  -0.221   2.209  1.00  0.00     0.060 A 
HETATM    2  C   UNL     1      -1.429   1.239   2.348  1.00  0.00     0.032 A 
HETATM    3  C   UNL     1      -2.121   1.967   1.233  1.00  0.00     0.002 A 
HETATM    4  C   UNL     1      -2.498   1.234  -0.020  1.00  0.00     0.002 A 
HETATM    5  C   UNL     1      -2.183  -0.226  -0.159  1.00  0.00     0.032 A 
HETATM    6  C   UNL     1      -1.492  -0.953   0.956  1.00  0.00     0.061 A 
ENDROOT
BRANCH   6   7
HETATM    7  N   UNL     1      -1.177  -2.413   0.817  1.00  0.00    -0.332 N 
HETATM    8  C   UNL     1       0.014  -2.851   0.017  1.00  0.00     0.189 C 
HETATM    9  O   UNL     1       0.890  -1.829  -0.644  1.00  0.00    -0.171 OA
HETATM   10  H   UNL     1      -1.752  -3.084   1.251  1.00  0.00     0.168 HD
BRANCH   8  11
HETATM   11  C   UNL     1       0.328  -4.311  -0.121  1.00  0.00     0.018 A 
HETATM   12  C   UNL     1      -0.739  -5.335   0.128  1.00  0.00     0.016 A 
HETATM   13  C   UNL     1      -0.424  -6.795  -0.010  1.00  0.00     0.007 A 
HETATM   14  C   UNL     1       0.957  -7.231  -0.399  1.00  0.00    -0.062 A 
HETATM   15  C   UNL     1       1.272  -8.691  -0.537  1.00  0.00     0.048 C 
HETATM   16  C   UNL     1       2.025  -6.207  -0.648  1.00  0.00     0.007 A 
HETATM   17  C   UNL     1       1.710  -4.747  -0.510  1.00  0.00     0.016 A 
ENDBRANCH   8  11
ENDBRANCH   6   7
BRANCH   1  18
HETATM   18  N   UNL     1      -0.423  -0.948   3.324  1.00  0.00    -0.336 N 
HETATM   19  C   UNL     1       1.071  -1.079   3.321  1.00  0.00     0.156 C 
HETATM   20  O   UNL     1       1.874  -0.483   2.202  1.00  0.00    -0.177 OA
HETATM   21  H   UNL     1      -0.950  -1.339   4.058  1.00  0.00     0.168 HD
BRANCH  19  22
HETATM   22  C   UNL     1       1.763  -1.807   4.435  1.00  0.00     0.090 C 
BRANCH  22  23
HETATM   23  C   UNL     1       1.295  -3.172   4.844  1.00  0.00     0.052 C 
BRANCH  23  24
HETATM   24  C   UNL     1       0.769  -4.125   3.812  1.00  0.00     0.127 C 
HETATM   25  C   UNL     1       1.675  -5.162   3.217  1.00  0.00     0.052 C 
HETATM   26  O   UNL     1      -0.664  -4.041   3.374  1.00  0.00    -0.226 OA
ENDBRANCH  23  24
ENDBRANCH  22  23
ENDBRANCH  19  22
ENDBRANCH   1  18
TORSDOF 6
ENDMDL
MODEL 4
REMARK VINA RESULT:      -0.0      9.671     13.727
REMARK  6 active torsions:
REMARK  status: ('A' for Active; 'I' for Inactive)
REMARK    1  A    between atoms: C_2  and  C_4 
REMARK    2  A    between atoms: C_4  and  C_5 
REMARK    3  A    between atoms: C_5  and  C_6 
REMARK       I    between atoms: C_6  and  N_8 
REMARK    4  A    between atoms: N_8  and  C_9 
REMARK    5  A    between atoms: C_14  and  N_15 
REMARK       I    between atoms: N_15  and  C_16 
REMARK    6  A    between atoms: C_16  and  C_18 
ROOT
HETATM    1  C   UNL     1       4.274  -5.908  -7.085  1.00  0.00     0.060 A 
HETATM    2  C   UNL     1       5.086  -5.027  -7.987  1.00  0.00     0.032 A 
HETATM    3  C   UNL     1       5.602  -5.560  -9.291  1.00  0.00     0.002 A 
HETATM    4  C   UNL     1       5.307  -6.975  -9.692  1.00  0.00     0.002 A 
HETATM    5  C   UNL     1       4.496  -7.857  -8.789  1.00  0.00     0.032 A 
HETATM    6  C   UNL     1       3.979  -7.323  -7.486  1.00  0.00     0.061 A 
ENDROOT
BRANCH   6   7
HETATM    7  N   UNL     1       3.168  -8.205  -6.584  1.00  0.00    -0.332 N 
HETATM    8  C   UNL     1       1.714  -8.438  -6.872  1.00  0.00     0.189 C 
HETATM    9  O   UNL     1       1.072  -7.790  -8.063  1.00  0.00    -0.171 OA
HETATM   10  H   UNL     1       3.588  -8.630  -5.803  1.00  0.00     0.168 HD
BRANCH   8  11
HETATM   11  C   UNL     1       0.903  -9.320  -5.970  1.00  0.00     0.018 A 
HETATM   12  C   UNL     1       1.587 -10.310  -5.075  1.00  0.00     0.016 A 
HETATM   13  C   UNL     1       0.775 -11.191  -4.173  1.00  0.00     0.007 A 
HETATM   14  C   UNL     1      -0.721 -11.083  -4.165  1.00  0.00    -0.062 A 
HETATM   15  C   UNL     1      -1.532 -11.964  -3.263  1.00  0.00     0.048 C 
HETATM   16  C   UNL     1      -1.405 -10.092  -5.060  1.00  0.00     0.007 A 
HETATM   17  C   UNL     1      -0.593  -9.211  -5.963  1.00  0.00     0.016 A 
ENDBRANCH   8  11
ENDBRANCH   6   7
BRANCH   1  18
HETATM   18  N   UNL     1       3.758  -5.375  -5.782  1.00  0.00    -0.336 N 
HETATM   19  C   UNL     1       2.381  -4.782  -5.707  1.00  0.00     0.156 C 
HETATM   20  O   UNL     1       1.522  -4.724  -6.934  1.00  0.00    -0.177 OA
HETATM   21  H   UNL     1       4.322  -5.414  -4.976  1.00  0.00     0.168 HD
BRANCH  19  22
HETATM   22  C   UNL     1       1.865  -4.249  -4.403  1.00  0.00     0.090 C 
BRANCH  22  23
HETATM   23  C   UNL     1       1.951  -5.088  -3.163  1.00  0.00     0.052 C 
BRANCH  23  24
HETATM   24  C   UNL     1       1.783  -6.576  -3.250  1.00  0.00     0.127 C 
HETATM   25  C   UNL     1       0.445  -7.197  -2.975  1.00  0.00     0.052 C 
HETATM   26  O   UNL     1       2.952  -7.442  -3.614  1.00  0.00    -0.226 OA
ENDBRANCH  23  24
ENDBRANCH  22  23
ENDBRANCH  19  22
ENDBRANCH   1  18
TORSDOF 6
ENDMDL
MODEL 5
REMARK VINA RESULT:      -0.0      7.061      9.431
REMARK  6 active torsions:
REMARK  status: ('A' for Active; 'I' for Inactive)
REMARK    1  A    between atoms: C_2  and  C_4 
REMARK    2  A    between atoms: C_4  and  C_5 
REMARK    3  A    between atoms: C_5  and  C_6 
REMARK       I    between atoms: C_6  and  N_8 
REMARK    4  A    between atoms: N_8  and  C_9 
REMARK    5  A    between atoms: C_14  and  N_15 
REMARK       I    between atoms: N_15  and  C_16 
REMARK    6  A    between atoms: C_16  and  C_18 
ROOT
HETATM    1  C   UNL     1       2.039  -4.215   8.839  1.00  0.00     0.060 A 
HETATM    2  C   UNL     1       1.921  -2.796   9.310  1.00  0.00     0.032 A 
HETATM    3  C   UNL     1       1.291  -1.762   8.425  1.00  0.00     0.002 A 
HETATM    4  C   UNL     1       0.779  -2.147   7.069  1.00  0.00     0.002 A 
HETATM    5  C   UNL     1       0.898  -3.566   6.598  1.00  0.00     0.032 A 
HETATM    6  C   UNL     1       1.528  -4.600   7.483  1.00  0.00     0.061 A 
ENDROOT
BRANCH   6   7
HETATM    7  N   UNL     1       1.647  -6.019   7.011  1.00  0.00    -0.332 N 
HETATM    8  C   UNL     1       0.458  -6.932   7.074  1.00  0.00     0.189 C 
HETATM    9  O   UNL     1      -0.849  -6.426   7.608  1.00  0.00    -0.171 OA
HETATM   10  H   UNL     1       2.504  -6.351   6.661  1.00  0.00     0.168 HD
BRANCH   8  11
HETATM   11  C   UNL     1       0.577  -8.351   6.603  1.00  0.00     0.018 A 
HETATM   12  C   UNL     1       1.689  -8.742   5.675  1.00  0.00     0.016 A 
HETATM   13  C   UNL     1       1.807 -10.161   5.204  1.00  0.00     0.007 A 
HETATM   14  C   UNL     1       0.814 -11.189   5.660  1.00  0.00    -0.062 A 
HETATM   15  C   UNL     1       0.933 -12.608   5.188  1.00  0.00     0.048 C 
HETATM   16  C   UNL     1      -0.298 -10.797   6.587  1.00  0.00     0.007 A 
HETATM   17  C   UNL     1      -0.416  -9.378   7.059  1.00  0.00     0.016 A 
ENDBRANCH   8  11
ENDBRANCH   6   7
BRANCH   1  18
HETATM   18  N   UNL     1       2.670  -5.249   9.724  1.00  0.00    -0.336 N 
HETATM   19  C   UNL     1       1.813  -6.087  10.626  1.00  0.00     0.156 C 
HETATM   20  O   UNL     1       0.326  -5.891  10.643  1.00  0.00    -0.177 OA
HETATM   21  H   UNL     1       3.646  -5.377   9.713  1.00  0.00     0.168 HD
BRANCH  19  22
HETATM   22  C   UNL     1       2.443  -7.121  11.511  1.00  0.00     0.090 C 
BRANCH  22  23
HETATM   23  C   UNL     1       3.414  -8.110  10.936  1.00  0.00     0.052 C 
BRANCH  23  24
HETATM   24  C   UNL     1       3.219  -8.627   9.542  1.00  0.00     0.127 C 
HETATM   25  C   UNL     1       2.523  -9.937   9.319  1.00  0.00     0.052 C 
HETATM   26  O   UNL     1       3.720  -7.835   8.371  1.00  0.00    -0.226 OA
ENDBRANCH  23  24
ENDBRANCH  22  23
ENDBRANCH  19  22
ENDBRANCH   1  18
TORSDOF 6
ENDMDL
MODEL 6
REMARK VINA RESULT:      -0.0     11.305     14.374
REMARK  6 active torsions:
REMARK  status: ('A' for Active; 'I' for Inactive)
REMARK    1  A    between atoms: C_2  and  C_4 
REMARK    2  A    between atoms: C_4  and  C_5 
REMARK    3  A    between atoms: C_5  and  C_6 
REMARK       I    between atoms: C_6  and  N_8 
REMARK    4  A    between atoms: N_8  and  C_9 
REMARK    5  A    between atoms: C_14  and  N_15 
REMARK       I    between atoms: N_15  and  C_16 
REMARK    6  A    between atoms: C_16  and  C_18 
ROOT
HETATM    1  C   UNL     1      -4.440   6.305  -5.658  1.00  0.00     0.060 A 
HETATM    2  C   UNL     1      -3.910   5.352  -6.687  1.00  0.00     0.032 A 
HETATM    3  C   UNL     1      -3.367   5.875  -7.985  1.00  0.00     0.002 A 
HETATM    4  C   UNL     1      -3.355   7.351  -8.252  1.00  0.00     0.002 A 
HETATM    5  C   UNL     1      -3.886   8.304  -7.222  1.00  0.00     0.032 A 
HETATM    6  C   UNL     1      -4.428   7.781  -5.925  1.00  0.00     0.061 A 
ENDROOT
BRANCH   6   7
HETATM    7  N   UNL     1      -4.959   8.734  -4.896  1.00  0.00    -0.332 N 
HETATM    8  C   UNL     1      -4.011   9.481  -4.005  1.00  0.00     0.189 C 
HETATM    9  O   UNL     1      -2.531   9.274  -4.144  1.00  0.00    -0.171 OA
HETATM   10  H   UNL     1      -5.929   8.870  -4.805  1.00  0.00     0.168 HD
BRANCH   8  11
HETATM   11  C   UNL     1      -4.541  10.434  -2.975  1.00  0.00     0.018 A 
HETATM   12  C   UNL     1      -5.928  10.989  -3.112  1.00  0.00     0.016 A 
HETATM   13  C   UNL     1      -6.459  11.942  -2.082  1.00  0.00     0.007 A 
HETATM   14  C   UNL     1      -5.603  12.340  -0.916  1.00  0.00    -0.062 A 
HETATM   15  C   UNL     1      -6.133  13.293   0.113  1.00  0.00     0.048 C 
HETATM   16  C   UNL     1      -4.216  11.784  -0.780  1.00  0.00     0.007 A 
HETATM   17  C   UNL     1      -3.685  10.831  -1.810  1.00  0.00     0.016 A 
ENDBRANCH   8  11
ENDBRANCH   6   7
BRANCH   1  18
HETATM   18  N   UNL     1      -4.983   5.782  -4.361  1.00  0.00    -0.336 N 
HETATM   19  C   UNL     1      -4.088   5.679  -3.161  1.00  0.00     0.156 C 
HETATM   20  O   UNL     1      -2.652   6.099  -3.258  1.00  0.00    -0.177 OA
HETATM   21  H   UNL     1      -5.926   5.507  -4.297  1.00  0.00     0.168 HD
BRANCH  19  22
HETATM   22  C   UNL     1      -4.631   5.157  -1.864  1.00  0.00     0.090 C 
BRANCH  22  23
HETATM   23  C   UNL     1      -5.903   5.719  -1.302  1.00  0.00     0.052 C 
BRANCH  23  24
HETATM   24  C   UNL     1      -6.226   7.172  -1.484  1.00  0.00     0.127 C 
HETATM   25  C   UNL     1      -5.900   8.154  -0.398  1.00  0.00     0.052 C 
HETATM   26  O   UNL     1      -6.874   7.643  -2.752  1.00  0.00    -0.226 OA
ENDBRANCH  23  24
ENDBRANCH  22  23
ENDBRANCH  19  22
ENDBRANCH   1  18
TORSDOF 6
ENDMDL
MODEL 7
REMARK VINA RESULT:      -0.0     11.724     13.875
REMARK  6 active torsions:
REMARK  status: ('A' for Active; 'I' for Inactive)
REMARK    1  A    between atoms: C_2  and  C_4 
REMARK    2  A    between atoms: C_4  and  C_5 
REMARK    3  A    between atoms: C_5  and  C_6 
REMARK       I    between atoms: C_6  and  N_8 
REMARK    4  A    between atoms: N_8  and  C_9 
REMARK    5  A    between atoms: C_14  and  N_15 
REMARK       I    between atoms: N_15  and  C_16 
REMARK    6  A    between atoms: C_16  and  C_18 
ROOT
HETATM    1  C   UNL     1      10.908  -3.390   1.701  1.00  0.00     0.060 A 
HETATM    2  C   UNL     1      11.890  -4.334   2.328  1.00  0.00     0.032 A 
HETATM    3  C   UNL     1      12.478  -5.452   1.518  1.00  0.00     0.002 A 
HETATM    4  C   UNL     1      12.083  -5.626   0.082  1.00  0.00     0.002 A 
HETATM    5  C   UNL     1      11.100  -4.681  -0.545  1.00  0.00     0.032 A 
HETATM    6  C   UNL     1      10.513  -3.563   0.265  1.00  0.00     0.061 A 
ENDROOT
BRANCH   6   7
HETATM    7  N   UNL     1       9.531  -2.619  -0.362  1.00  0.00    -0.332 N 
HETATM    8  C   UNL     1      10.017  -1.504  -1.239  1.00  0.00     0.189 C 
HETATM    9  O   UNL     1      11.486  -1.333  -1.490  1.00  0.00    -0.171 OA
HETATM   10  H   UNL     1       8.567  -2.731  -0.198  1.00  0.00     0.168 HD
BRANCH   8  11
HETATM   11  C   UNL     1       9.035  -0.560  -1.866  1.00  0.00     0.018 A 
HETATM   12  C   UNL     1       7.596  -0.959  -2.007  1.00  0.00     0.016 A 
HETATM   13  C   UNL     1       6.614  -0.015  -2.634  1.00  0.00     0.007 A 
HETATM   14  C   UNL     1       7.070   1.329  -3.120  1.00  0.00    -0.062 A 
HETATM   15  C   UNL     1       6.088   2.273  -3.747  1.00  0.00     0.048 C 
HETATM   16  C   UNL     1       8.509   1.728  -2.979  1.00  0.00     0.007 A 
HETATM   17  C   UNL     1       9.492   0.784  -2.352  1.00  0.00     0.016 A 
ENDBRANCH   8  11
ENDBRANCH   6   7
BRANCH   1  18
HETATM   18  N   UNL     1      10.321  -2.272   2.511  1.00  0.00    -0.336 N 
HETATM   19  C   UNL     1      10.962  -0.916   2.493  1.00  0.00     0.156 C 
HETATM   20  O   UNL     1      12.190  -0.678   1.666  1.00  0.00    -0.177 OA
HETATM   21  H   UNL     1       9.514  -2.429   3.054  1.00  0.00     0.168 HD
BRANCH  19  22
HETATM   22  C   UNL     1      10.375   0.202   3.303  1.00  0.00     0.090 C 
BRANCH  22  23
HETATM   23  C   UNL     1       8.909   0.508   3.206  1.00  0.00     0.052 C 
BRANCH  23  24
HETATM   24  C   UNL     1       8.193   0.345   1.898  1.00  0.00     0.127 C 
HETATM   25  C   UNL     1       7.990   1.530   1.002  1.00  0.00     0.052 C 
HETATM   26  O   UNL     1       7.681  -1.003   1.487  1.00  0.00    -0.226 OA
ENDBRANCH  23  24
ENDBRANCH  22  23
ENDBRANCH  19  22
ENDBRANCH   1  18
TORSDOF 6
ENDMDL
MODEL 8
REMARK VINA RESULT:      -0.0      7.424     10.827
REMARK  6 active torsions:
REMARK  status: ('A' for Active; 'I' for Inactive)
REMARK    1  A    between atoms: C_2  and  C_4 
REMARK    2  A    between atoms: C_4  and  C_5 
REMARK    3  A    between atoms: C_5  and  C_6 
REMARK       I    between atoms: C_6  and  N_8 
REMARK    4  A    between atoms: N_8  and  C_9 
REMARK    5  A    between atoms: C_14  and  N_15 
REMARK       I    between atoms: N_15  and  C_16 
REMARK    6  A    between atoms: C_16  and  C_18 
ROOT
HETATM    1  C   UNL     1      -4.081   5.768  -2.269  1.00  0.00     0.060 A 
HETATM    2  C   UNL     1      -4.018   6.218  -3.699  1.00  0.00     0.032 A 
HETATM    3  C   UNL     1      -4.829   5.510  -4.744  1.00  0.00     0.002 A 
HETATM    4  C   UNL     1      -5.701   4.352  -4.359  1.00  0.00     0.002 A 
HETATM    5  C   UNL     1      -5.764   3.902  -2.929  1.00  0.00     0.032 A 
HETATM    6  C   UNL     1      -4.953   4.610  -1.884  1.00  0.00     0.061 A 
ENDROOT
BRANCH   6   7
HETATM    7  N   UNL     1      -5.016   4.161  -0.455  1.00  0.00    -0.332 N 
HETATM    8  C   UNL     1      -6.173   4.565   0.409  1.00  0.00     0.189 C 
HETATM    9  O   UNL     1      -7.269   5.419  -0.157  1.00  0.00    -0.171 OA
HETATM   10  H   UNL     1      -4.297   3.600  -0.083  1.00  0.00     0.168 HD
BRANCH   8  11
HETATM   11  C   UNL     1      -6.236   4.115   1.838  1.00  0.00     0.018 A 
HETATM   12  C   UNL     1      -5.431   2.932   2.288  1.00  0.00     0.016 A 
HETATM   13  C   UNL     1      -5.493   2.483   3.718  1.00  0.00     0.007 A 
HETATM   14  C   UNL     1      -6.360   3.216   4.698  1.00  0.00    -0.062 A 
HETATM   15  C   UNL     1      -6.423   2.766   6.127  1.00  0.00     0.048 C 
HETATM   16  C   UNL     1      -7.165   4.399   4.248  1.00  0.00     0.007 A 
HETATM   17  C   UNL     1      -7.103   4.848   2.818  1.00  0.00     0.016 A 
ENDBRANCH   8  11
ENDBRANCH   6   7
BRANCH   1  18
HETATM   18  N   UNL     1      -3.270   6.476  -1.224  1.00  0.00    -0.336 N 
HETATM   19  C   UNL     1      -3.879   7.597  -0.435  1.00  0.00     0.156 C 
HETATM   20  O   UNL     1      -5.299   8.010  -0.691  1.00  0.00    -0.177 OA
HETATM   21  H   UNL     1      -2.339   6.205  -1.057  1.00  0.00     0.168 HD
BRANCH  19  22
HETATM   22  C   UNL     1      -3.069   8.305   0.610  1.00  0.00     0.090 C 
BRANCH  22  23
HETATM   23  C   UNL     1      -2.325   7.515   1.645  1.00  0.00     0.052 C 
BRANCH  23  24
HETATM   24  C   UNL     1      -2.908   6.239   2.176  1.00  0.00     0.127 C 
HETATM   25  C   UNL     1      -3.683   6.245   3.460  1.00  0.00     0.052 C 
HETATM   26  O   UNL     1      -2.715   4.956   1.423  1.00  0.00    -0.226 OA
ENDBRANCH  23  24
ENDBRANCH  22  23
ENDBRANCH  19  22
ENDBRANCH   1  18
TORSDOF 6
ENDMDL
MODEL 9
REMARK VINA RESULT:      -0.0     14.967     16.787
REMARK  6 active torsions:
REMARK  status: ('A' for Active; 'I' for Inactive)
REMARK    1  A    between atoms: C_2  and  C_4 
REMARK    2  A    between atoms: C_4  and  C_5 
REMARK    3  A    between atoms: C_5  and  C_6 
REMARK       I    between atoms: C_6  and  N_8 
REMARK    4  A    between atoms: N_8  and  C_9 
REMARK    5  A    between atoms: C_14  and  N_15 
REMARK       I    between atoms: N_15  and  C_16 
REMARK    6  A    between atoms: C_16  and  C_18 
ROOT
HETATM    1  C   UNL     1       6.875   6.875  -7.168  1.00  0.00     0.060 A 
HETATM    2  C   UNL     1       6.635   6.254  -8.512  1.00  0.00     0.032 A 
HETATM    3  C   UNL     1       5.536   6.771  -9.392  1.00  0.00     0.002 A 
HETATM    4  C   UNL     1       4.675   7.908  -8.926  1.00  0.00     0.002 A 
HETATM    5  C   UNL     1       4.915   8.529  -7.582  1.00  0.00     0.032 A 
HETATM    6  C   UNL     1       6.015   8.012  -6.703  1.00  0.00     0.061 A 
ENDROOT
BRANCH   6   7
HETATM    7  N   UNL     1       6.254   8.632  -5.358  1.00  0.00    -0.332 N 
HETATM    8  C   UNL     1       5.380   8.265  -4.196  1.00  0.00     0.189 C 
HETATM    9  O   UNL     1       4.266   7.277  -4.379  1.00  0.00    -0.171 OA
HETATM   10  H   UNL     1       6.985   9.280  -5.239  1.00  0.00     0.168 HD
BRANCH   8  11
HETATM   11  C   UNL     1       5.620   8.885  -2.852  1.00  0.00     0.018 A 
HETATM   12  C   UNL     1       6.394  10.165  -2.744  1.00  0.00     0.016 A 
HETATM   13  C   UNL     1       6.633  10.786  -1.399  1.00  0.00     0.007 A 
HETATM   14  C   UNL     1       6.099  10.126  -0.163  1.00  0.00    -0.062 A 
HETATM   15  C   UNL     1       6.338  10.747   1.182  1.00  0.00     0.048 C 
HETATM   16  C   UNL     1       5.324   8.846  -0.271  1.00  0.00     0.007 A 
HETATM   17  C   UNL     1       5.085   8.226  -1.615  1.00  0.00     0.016 A 
ENDBRANCH   8  11
ENDBRANCH   6   7
BRANCH   1  18
HETATM   18  N   UNL     1       7.975   6.358  -6.289  1.00  0.00    -0.336 N 
HETATM   19  C   UNL     1       7.681   5.307  -5.259  1.00  0.00     0.156 C 
HETATM   20  O   UNL     1       6.287   4.774  -5.108  1.00  0.00    -0.177 OA
HETATM   21  H   UNL     1       8.890   6.708  -6.388  1.00  0.00     0.168 HD
BRANCH  19  22
HETATM   22  C   UNL     1       8.781   4.791  -4.380  1.00  0.00     0.090 C 
BRANCH  22  23
HETATM   23  C   UNL     1       9.673   5.752  -3.651  1.00  0.00     0.052 C 
BRANCH  23  24
HETATM   24  C   UNL     1       9.117   7.044  -3.130  1.00  0.00     0.127 C 
HETATM   25  C   UNL     1       8.676   7.148  -1.700  1.00  0.00     0.052 C 
HETATM   26  O   UNL     1       9.002   8.231  -4.039  1.00  0.00    -0.226 OA
ENDBRANCH  23  24
ENDBRANCH  22  23
ENDBRANCH  19  22
ENDBRANCH   1  18
TORSDOF 6
ENDMDL
