REMARK  7 active torsions:
REMARK  status: ('A' for Active; 'I' for Inactive)
REMARK       I    between atoms: C_2  and  N_4 
REMARK    1  A    between atoms: N_4  and  C_5 
REMARK    2  A    between atoms: C_8  and  N_9 
REMARK    3  A    between atoms: N_9  and  C_10 
REMARK    4  A    between atoms: C_10  and  C_11 
REMARK    5  A    between atoms: C_14  and  N_15 
REMARK    6  A    between atoms: N_15  and  C_16 
REMARK    7  A    between atoms: C_16  and  C_17 
ROOT
HETATM    1  C   UNL     1      -5.250   1.299   0.000  1.00  0.00    -0.040 A 
HETATM    2  C   UNL     1      -6.000   2.598   0.000  1.00  0.00     0.011 A 
HETATM    3  C   UNL     1      -7.500   2.598   0.000  1.00  0.00     0.029 A 
HETATM    4  C   UNL     1      -8.250   1.299   0.000  1.00  0.00     0.028 A 
HETATM    5  C   UNL     1      -7.500   0.000   0.000  1.00  0.00     0.029 A 
HETATM    6  C   UNL     1      -6.000   0.000   0.000  1.00  0.00     0.011 A 
ENDROOT
BRANCH   1   7
HETATM    7  C   UNL     1      -3.750   1.299   0.000  1.00  0.00     0.158 C 
BRANCH   7   8
HETATM    8  N   UNL     1      -3.000   0.000   0.000  1.00  0.00    -0.386 N 
HETATM    9  H   UNL     1      -3.492  -0.853   0.000  1.00  0.00     0.160 HD
BRANCH   8  10
HETATM   10  C   UNL     1      -1.500   0.000   0.000  1.00  0.00     0.028 A 
HETATM   11  C   UNL     1      -0.750  -1.299   0.000  1.00  0.00     0.031 A 
HETATM   12  C   UNL     1       0.750  -1.299   0.000  1.00  0.00     0.032 A 
HETATM   13  C   UNL     1       1.500   0.000   0.000  1.00  0.00     0.033 A 
HETATM   14  C   UNL     1       0.750   1.299   0.000  1.00  0.00     0.032 A 
HETATM   15  C   UNL     1      -0.750   1.299   0.000  1.00  0.00     0.031 A 
BRANCH  13  16
HETATM   16  N   UNL     1       3.000   0.000   0.000  1.00  0.00    -0.339 N 
HETATM   17  C   UNL     1       3.750  -1.299   0.000  1.00  0.00     0.151 C 
HETATM   18  C   UNL     1       5.250  -1.299   0.000  1.00  0.00     0.100 C 
HETATM   19  O   UNL     1       3.000  -2.598   0.000  1.00  0.00    -0.177 OA
HETATM   20  H   UNL     1       3.492   0.853   0.000  1.00  0.00     0.168 HD
ENDBRANCH  13  16
ENDBRANCH   8  10
ENDBRANCH   7   8
ENDBRANCH   1   7
BRANCH   4  21
HETATM   21  N   UNL     1      -9.750   1.299   0.000  1.00  0.00    -0.386 N 
HETATM   22  H   UNL     1     -10.242   0.446   0.000  1.00  0.00     0.160 HD
BRANCH  21  23
HETATM   23  C   UNL     1     -10.500   2.598   0.000  1.00  0.00     0.158 C 
BRANCH  23  24
HETATM   24  C   UNL     1     -12.000   2.598   0.000  1.00  0.00    -0.041 A 
HETATM   25  C   UNL     1     -12.750   3.897   0.000  1.00  0.00     0.009 A 
HETATM   26  C   UNL     1     -14.250   3.897   0.000  1.00  0.00     0.001 A 
HETATM   27  C   UNL     1     -15.000   2.598   0.000  1.00  0.00     0.000 A 
HETATM   28  C   UNL     1     -14.250   1.299   0.000  1.00  0.00     0.001 A 
HETATM   29  C   UNL     1     -12.750   1.299   0.000  1.00  0.00     0.009 A 
ENDBRANCH  23  24
ENDBRANCH  21  23
ENDBRANCH   4  21
TORSDOF 7
