REMARK  3 active torsions:
REMARK  status: ('A' for Active; 'I' for Inactive)
REMARK       I    between atoms: N_1  and  C_2 
REMARK    1  A    between atoms: C_2  and  C_4 
REMARK    2  A    between atoms: C_12  and  C_13 
REMARK    3  A    between atoms: C_13  and  N_14 
ROOT
HETATM    1  C   UNL     1       1.500   0.000   0.000  1.00  0.00     0.020 A 
HETATM    2  C   UNL     1       0.750  -1.299   0.000  1.00  0.00     0.018 A 
HETATM    3  C   UNL     1      -0.750  -1.299   0.000  1.00  0.00     0.033 A 
HETATM    4  C   UNL     1      -1.500   0.000   0.000  1.00  0.00     0.068 A 
HETATM    5  N   UNL     1      -3.000   0.000   0.000  1.00  0.00    -0.355 N 
HETATM    6  C   UNL     1      -3.750   1.299   0.000  1.00  0.00     0.048 A 
HETATM    7  C   UNL     1      -3.000   2.598   0.000  1.00  0.00     0.208 A 
HETATM    8  C   UNL     1      -3.750   3.897   0.000  1.00  0.00     0.020 A 
HETATM    9  C   UNL     1      -5.250   3.897   0.000  1.00  0.00    -0.003 A 
HETATM   10  C   UNL     1      -6.000   2.598   0.000  1.00  0.00     0.126 A 
HETATM   11  F   UNL     1      -7.500   2.598   0.000  1.00  0.00    -0.205 F 
HETATM   12  C   UNL     1      -5.250   1.299   0.000  1.00  0.00     0.071 A 
HETATM   13  C   UNL     1      -0.750   1.299   0.000  1.00  0.00     0.103 A 
HETATM   14  F   UNL     1      -1.500   2.598   0.000  1.00  0.00    -0.354 F 
HETATM   15  C   UNL     1       0.750   1.299   0.000  1.00  0.00     0.057 A 
HETATM   16  H   UNL     1      -3.492  -0.853   0.000  1.00  0.00     0.166 HD
ENDROOT
BRANCH   9  17
HETATM   17  C   UNL     1      -6.000   5.196   0.000  1.00  0.00     0.158 C 
BRANCH  17  18
HETATM   18  N   UNL     1      -5.250   6.495   0.000  1.00  0.00    -0.405 N 
HETATM   19  C   UNL     1      -3.750   6.495   0.000  1.00  0.00     0.141 A 
HETATM   20  C   UNL     1      -3.000   7.794   0.000  1.00  0.00     0.133 A 
HETATM   21  N   UNL     1      -3.750   9.093   0.000  1.00  0.00    -0.418 N 
HETATM   22  C   UNL     1      -5.250   9.093   0.000  1.00  0.00     0.133 A 
HETATM   23  H   UNL     1      -3.240   9.977   0.000  1.00  0.00     0.153 HD
HETATM   24  C   UNL     1      -6.000   7.794   0.000  1.00  0.00     0.137 A 
ENDBRANCH  17  18
ENDBRANCH   9  17
BRANCH   1  25
HETATM   25  C   UNL     1       3.000   0.000   0.000  1.00  0.00     0.182 C 
HETATM   26  N   UNL     1       3.750  -1.299   0.000  1.00  0.00    -0.377 N 
HETATM   27  H   UNL     1       3.258  -2.152   0.000  1.00  0.00     0.158 HD
HETATM   28  H   UNL     1       4.734  -1.299   0.000  1.00  0.00     0.158 HD
HETATM   29  O   UNL     1       3.750   1.299   0.000  1.00  0.00    -0.172 OA
ENDBRANCH   1  25
TORSDOF 3
