MODEL 1
REMARK VINA RESULT:      -0.0      0.000      0.000
REMARK  5 active torsions:
REMARK  status: ('A' for Active; 'I' for Inactive)
REMARK    1  A    between atoms: C_2  and  C_3 
REMARK    2  A    between atoms: C_6  and  S_7 
REMARK    3  A    between atoms: S_7  and  N_10 
REMARK    4  A    between atoms: N_10  and  C_11 
REMARK    5  A    between atoms: C_14  and  N_15 
REMARK       I    between atoms: N_15  and  C_16 
REMARK       I    between atoms: C_16  and  N_18 
ROOT
HETATM    1  C   UNL     1       1.727   5.455  -0.298  1.00  0.00     0.042 A 
HETATM    2  C   UNL     1       2.732   4.348  -0.410  1.00  0.00     0.032 A 
HETATM    3  C   UNL     1       3.548   4.199  -1.660  1.00  0.00     0.032 A 
HETATM    4  C   UNL     1       3.358   5.157  -2.798  1.00  0.00     0.035 A 
HETATM    5  C   UNL     1       2.353   6.265  -2.686  1.00  0.00     0.032 A 
HETATM    6  C   UNL     1       1.537   6.414  -1.437  1.00  0.00     0.032 A 
ENDROOT
BRANCH   1   7
HETATM    7  N   UNL     1       0.911   5.605   0.951  1.00  0.00    -0.281 N 
HETATM    8  H   UNL     1      -0.057   5.776   0.891  1.00  0.00     0.179 HD
BRANCH   7   9
HETATM    9  S   UNL     1       1.569   5.493   2.295  1.00  0.00     0.263 S 
HETATM   10  O   UNL     1       2.283   6.790   2.053  1.00  0.00    -0.200 OA
HETATM   11  O   UNL     1       0.856   4.196   2.536  1.00  0.00    -0.200 OA
BRANCH   9  12
HETATM   12  C   UNL     1       2.228   5.382   3.638  1.00  0.00     0.079 A 
HETATM   13  C   UNL     1       1.427   4.956   4.833  1.00  0.00     0.026 A 
HETATM   14  C   UNL     1       2.085   4.845   6.176  1.00  0.00     0.009 A 
HETATM   15  C   UNL     1       3.545   5.159   6.324  1.00  0.00    -0.058 A 
HETATM   16  C   UNL     1       4.345   5.584   5.129  1.00  0.00     0.009 A 
HETATM   17  C   UNL     1       3.687   5.696   3.786  1.00  0.00     0.026 A 
BRANCH  15  18
HETATM   18  C   UNL     1       4.203   5.047   7.667  1.00  0.00     0.034 C 
HETATM   19  C   UNL     1       3.402   4.623   8.862  1.00  0.00     0.010 C 
ENDBRANCH  15  18
ENDBRANCH   9  12
ENDBRANCH   7   9
ENDBRANCH   1   7
BRANCH   4  20
HETATM   20  N   UNL     1       4.174   5.008  -4.048  1.00  0.00    -0.320 N 
HETATM   21  C   UNL     1       5.503   5.695  -4.163  1.00  0.00     0.253 C 
HETATM   22  O   UNL     1       6.016   6.531  -3.028  1.00  0.00    -0.151 OA
HETATM   23  N   UNL     1       6.319   5.546  -5.413  1.00  0.00    -0.354 N 
HETATM   24  C   UNL     1       7.647   6.233  -5.528  1.00  0.00     0.152 C 
HETATM   25  C   UNL     1       5.806   4.710  -6.548  1.00  0.00     0.152 C 
HETATM   26  H   UNL     1       3.838   4.459  -4.793  1.00  0.00     0.169 HD
ENDBRANCH   4  20
TORSDOF 5
ENDMDL
MODEL 2
REMARK VINA RESULT:      -0.0     11.165     15.633
REMARK  5 active torsions:
REMARK  status: ('A' for Active; 'I' for Inactive)
REMARK    1  A    between atoms: C_2  and  C_3 
REMARK    2  A    between atoms: C_6  and  S_7 
REMARK    3  A    between atoms: S_7  and  N_10 
REMARK    4  A    between atoms: N_10  and  C_11 
REMARK    5  A    between atoms: C_14  and  N_15 
REMARK       I    between atoms: N_15  and  C_16 
REMARK       I    between atoms: C_16  and  N_18 
ROOT
HETATM    1  C   UNL     1      -5.057  -1.153   8.099  1.00  0.00     0.042 A 
HETATM    2  C   UNL     1      -4.742  -2.425   8.831  1.00  0.00     0.032 A 
HETATM    3  C   UNL     1      -5.854  -3.297   9.332  1.00  0.00     0.032 A 
HETATM    4  C   UNL     1      -7.282  -2.899   9.102  1.00  0.00     0.035 A 
HETATM    5  C   UNL     1      -7.597  -1.628   8.371  1.00  0.00     0.032 A 
HETATM    6  C   UNL     1      -6.485  -0.755   7.869  1.00  0.00     0.032 A 
ENDROOT
BRANCH   1   7
HETATM    7  N   UNL     1      -3.945  -0.281   7.598  1.00  0.00    -0.281 N 
HETATM    8  H   UNL     1      -3.174  -0.682   7.136  1.00  0.00     0.179 HD
BRANCH   7   9
HETATM    9  S   UNL     1      -4.007   1.204   7.802  1.00  0.00     0.263 S 
HETATM   10  O   UNL     1      -4.191   1.399   6.326  1.00  0.00    -0.200 OA
HETATM   11  O   UNL     1      -3.824   1.010   9.278  1.00  0.00    -0.200 OA
BRANCH   9  12
HETATM   12  C   UNL     1      -4.069   2.689   8.005  1.00  0.00     0.079 A 
HETATM   13  C   UNL     1      -3.336   3.605   7.071  1.00  0.00     0.026 A 
HETATM   14  C   UNL     1      -3.398   5.090   7.274  1.00  0.00     0.009 A 
HETATM   15  C   UNL     1      -4.193   5.659   8.412  1.00  0.00    -0.058 A 
HETATM   16  C   UNL     1      -4.926   4.743   9.346  1.00  0.00     0.009 A 
HETATM   17  C   UNL     1      -4.864   3.258   9.143  1.00  0.00     0.026 A 
BRANCH  15  18
HETATM   18  C   UNL     1      -4.255   7.144   8.615  1.00  0.00     0.034 C 
HETATM   19  C   UNL     1      -3.432   8.054   7.752  1.00  0.00     0.010 C 
ENDBRANCH  15  18
ENDBRANCH   9  12
ENDBRANCH   7   9
ENDBRANCH   1   7
BRANCH   4  20
HETATM   20  N   UNL     1      -8.394  -3.772   9.603  1.00  0.00    -0.320 N 
HETATM   21  C   UNL     1      -8.957  -3.555  10.977  1.00  0.00     0.253 C 
HETATM   22  O   UNL     1      -8.407  -2.466  11.849  1.00  0.00    -0.151 OA
HETATM   23  N   UNL     1     -10.069  -4.428  11.478  1.00  0.00    -0.354 N 
HETATM   24  C   UNL     1     -10.631  -4.211  12.851  1.00  0.00     0.152 C 
HETATM   25  C   UNL     1     -10.619  -5.517  10.605  1.00  0.00     0.152 C 
HETATM   26  H   UNL     1      -8.755  -4.487   9.031  1.00  0.00     0.169 HD
ENDBRANCH   4  20
TORSDOF 5
ENDMDL
MODEL 3
REMARK VINA RESULT:      -0.0     13.993     17.889
REMARK  5 active torsions:
REMARK  status: ('A' for Active; 'I' for Inactive)
REMARK    1  A    between atoms: C_2  and  C_3 
REMARK    2  A    between atoms: C_6  and  S_7 
REMARK    3  A    between atoms: S_7  and  N_10 
REMARK    4  A    between atoms: N_10  and  C_11 
REMARK    5  A    between atoms: C_14  and  N_15 
REMARK       I    between atoms: N_15  and  C_16 
REMARK       I    between atoms: C_16  and  N_18 
ROOT
HETATM    1  C   UNL     1      -7.485   1.218  -5.727  1.00  0.00     0.042 A 
HETATM    2  C   UNL     1      -6.894   0.600  -4.495  1.00  0.00     0.032 A 
HETATM    3  C   UNL     1      -7.742   0.406  -3.273  1.00  0.00     0.032 A 
HETATM    4  C   UNL     1      -9.181   0.830  -3.284  1.00  0.00     0.035 A 
HETATM    5  C   UNL     1      -9.772   1.449  -4.516  1.00  0.00     0.032 A 
HETATM    6  C   UNL     1      -8.923   1.643  -5.738  1.00  0.00     0.032 A 
ENDROOT
BRANCH   1   7
HETATM    7  N   UNL     1      -6.637   1.412  -6.949  1.00  0.00    -0.281 N 
HETATM    8  H   UNL     1      -5.727   1.779  -6.864  1.00  0.00     0.179 HD
BRANCH   7   9
HETATM    9  S   UNL     1      -7.175   1.048  -8.301  1.00  0.00     0.263 S 
HETATM   10  O   UNL     1      -7.123  -0.405  -7.930  1.00  0.00    -0.200 OA
HETATM   11  O   UNL     1      -7.226   2.500  -8.672  1.00  0.00    -0.200 OA
BRANCH   9  12
HETATM   12  C   UNL     1      -7.713   0.683  -9.653  1.00  0.00     0.079 A 
HETATM   13  C   UNL     1      -8.784  -0.359  -9.778  1.00  0.00     0.026 A 
HETATM   14  C   UNL     1      -9.322  -0.724 -11.130  1.00  0.00     0.009 A 
HETATM   15  C   UNL     1      -8.789  -0.046 -12.357  1.00  0.00    -0.058 A 
HETATM   16  C   UNL     1      -7.717   0.996 -12.232  1.00  0.00     0.009 A 
HETATM   17  C   UNL     1      -7.179   1.361 -10.880  1.00  0.00     0.026 A 
BRANCH  15  18
HETATM   18  C   UNL     1      -9.326  -0.411 -13.709  1.00  0.00     0.034 C 
HETATM   19  C   UNL     1      -8.787   0.260 -14.937  1.00  0.00     0.010 C 
ENDBRANCH  15  18
ENDBRANCH   9  12
ENDBRANCH   7   9
ENDBRANCH   1   7
BRANCH   4  20
HETATM   20  N   UNL     1     -10.029   0.636  -2.062  1.00  0.00    -0.320 N 
HETATM   21  C   UNL     1     -10.809  -0.632  -1.884  1.00  0.00     0.253 C 
HETATM   22  O   UNL     1     -10.742  -1.707  -2.928  1.00  0.00    -0.151 OA
HETATM   23  N   UNL     1     -11.658  -0.826  -0.662  1.00  0.00    -0.354 N 
HETATM   24  C   UNL     1     -12.438  -2.095  -0.484  1.00  0.00     0.152 C 
HETATM   25  C   UNL     1     -11.725   0.249   0.382  1.00  0.00     0.152 C 
HETATM   26  H   UNL     1     -10.074   1.342  -1.376  1.00  0.00     0.169 HD
ENDBRANCH   4  20
TORSDOF 5
ENDMDL
MODEL 4
REMARK VINA RESULT:       0.0      6.187      7.432
REMARK  5 active torsions:
REMARK  status: ('A' for Active; 'I' for Inactive)
REMARK    1  A    between atoms: C_2  and  C_3 
REMARK    2  A    between atoms: C_6  and  S_7 
REMARK    3  A    between atoms: S_7  and  N_10 
REMARK    4  A    between atoms: N_10  and  C_11 
REMARK    5  A    between atoms: C_14  and  N_15 
REMARK       I    between atoms: N_15  and  C_16 
REMARK       I    between atoms: C_16  and  N_18 
ROOT
HETATM    1  C   UNL     1       0.536  -0.240   2.095  1.00  0.00     0.042 A 
HETATM    2  C   UNL     1       1.034   0.702   1.040  1.00  0.00     0.032 A 
HETATM    3  C   UNL     1       0.058   1.474   0.202  1.00  0.00     0.032 A 
HETATM    4  C   UNL     1      -1.416   1.303   0.421  1.00  0.00     0.035 A 
HETATM    5  C   UNL     1      -1.914   0.361   1.476  1.00  0.00     0.032 A 
HETATM    6  C   UNL     1      -0.938  -0.410   2.314  1.00  0.00     0.032 A 
ENDROOT
BRANCH   1   7
HETATM    7  N   UNL     1       1.512  -1.011   2.933  1.00  0.00    -0.281 N 
HETATM    8  H   UNL     1       1.367  -1.971   3.101  1.00  0.00     0.179 HD
BRANCH   7   9
HETATM    9  S   UNL     1       2.711  -0.322   3.515  1.00  0.00     0.263 S 
HETATM   10  O   UNL     1       3.604  -1.096   2.592  1.00  0.00    -0.200 OA
HETATM   11  O   UNL     1       1.817   0.452   4.438  1.00  0.00    -0.200 OA
BRANCH   9  12
HETATM   12  C   UNL     1       3.909   0.368   4.097  1.00  0.00     0.079 A 
HETATM   13  C   UNL     1       5.144  -0.419   4.419  1.00  0.00     0.026 A 
HETATM   14  C   UNL     1       6.343   0.270   5.001  1.00  0.00     0.009 A 
HETATM   15  C   UNL     1       6.305   1.747   5.261  1.00  0.00    -0.058 A 
HETATM   16  C   UNL     1       5.070   2.534   4.938  1.00  0.00     0.009 A 
HETATM   17  C   UNL     1       3.872   1.845   4.357  1.00  0.00     0.026 A 
BRANCH  15  18
HETATM   18  C   UNL     1       7.504   2.437   5.842  1.00  0.00     0.034 C 
HETATM   19  C   UNL     1       8.738   1.649   6.168  1.00  0.00     0.010 C 
ENDBRANCH  15  18
ENDBRANCH   9  12
ENDBRANCH   7   9
ENDBRANCH   1   7
BRANCH   4  20
HETATM   20  N   UNL     1      -2.393   2.075  -0.417  1.00  0.00    -0.320 N 
HETATM   21  C   UNL     1      -2.839   3.440   0.017  1.00  0.00     0.253 C 
HETATM   22  O   UNL     1      -2.309   4.033   1.289  1.00  0.00    -0.151 OA
HETATM   23  N   UNL     1      -3.815   4.211  -0.820  1.00  0.00    -0.354 N 
HETATM   24  C   UNL     1      -4.262   5.576  -0.386  1.00  0.00     0.152 C 
HETATM   25  C   UNL     1      -4.345   3.618  -2.092  1.00  0.00     0.152 C 
HETATM   26  H   UNL     1      -2.741   1.686  -1.252  1.00  0.00     0.169 HD
ENDBRANCH   4  20
TORSDOF 5
ENDMDL
MODEL 5
REMARK VINA RESULT:       0.0     15.626     18.230
REMARK  5 active torsions:
REMARK  status: ('A' for Active; 'I' for Inactive)
REMARK    1  A    between atoms: C_2  and  C_3 
REMARK    2  A    between atoms: C_6  and  S_7 
REMARK    3  A    between atoms: S_7  and  N_10 
REMARK    4  A    between atoms: N_10  and  C_11 
REMARK    5  A    between atoms: C_14  and  N_15 
REMARK       I    between atoms: N_15  and  C_16 
REMARK       I    between atoms: C_16  and  N_18 
ROOT
HETATM    1  C   UNL     1       4.986  -9.855   6.817  1.00  0.00     0.042 A 
HETATM    2  C   UNL     1       6.005  -8.972   7.473  1.00  0.00     0.032 A 
HETATM    3  C   UNL     1       5.899  -8.665   8.938  1.00  0.00     0.032 A 
HETATM    4  C   UNL     1       4.773  -9.240   9.745  1.00  0.00     0.035 A 
HETATM    5  C   UNL     1       3.754 -10.123   9.088  1.00  0.00     0.032 A 
HETATM    6  C   UNL     1       3.860 -10.431   7.624  1.00  0.00     0.032 A 
ENDROOT
BRANCH   1   7
HETATM    7  N   UNL     1       5.092 -10.162   5.352  1.00  0.00    -0.281 N 
HETATM    8  H   UNL     1       5.963 -10.403   4.961  1.00  0.00     0.179 HD
BRANCH   7   9
HETATM    9  S   UNL     1       3.871 -10.103   4.483  1.00  0.00     0.263 S 
HETATM   10  O   UNL     1       3.830  -8.612   4.641  1.00  0.00    -0.200 OA
HETATM   11  O   UNL     1       3.911 -11.594   4.325  1.00  0.00    -0.200 OA
BRANCH   9  12
HETATM   12  C   UNL     1       2.650 -10.044   3.614  1.00  0.00     0.079 A 
HETATM   13  C   UNL     1       2.583 -10.860   2.357  1.00  0.00     0.026 A 
HETATM   14  C   UNL     1       1.362 -10.801   1.488  1.00  0.00     0.009 A 
HETATM   15  C   UNL     1       0.208  -9.925   1.875  1.00  0.00    -0.058 A 
HETATM   16  C   UNL     1       0.274  -9.108   3.132  1.00  0.00     0.009 A 
HETATM   17  C   UNL     1       1.495  -9.167   4.001  1.00  0.00     0.026 A 
BRANCH  15  18
HETATM   18  C   UNL     1      -1.013  -9.865   1.006  1.00  0.00     0.034 C 
HETATM   19  C   UNL     1      -2.202  -9.057   1.436  1.00  0.00     0.010 C 
ENDBRANCH  15  18
ENDBRANCH   9  12
ENDBRANCH   7   9
ENDBRANCH   1   7
BRANCH   4  20
HETATM   20  N   UNL     1       4.667  -8.933  11.209  1.00  0.00    -0.320 N 
HETATM   21  C   UNL     1       3.854  -7.760  11.673  1.00  0.00     0.253 C 
HETATM   22  O   UNL     1       3.148  -6.895  10.672  1.00  0.00    -0.151 OA
HETATM   23  N   UNL     1       3.748  -7.453  13.137  1.00  0.00    -0.354 N 
HETATM   24  C   UNL     1       2.935  -6.281  13.600  1.00  0.00     0.152 C 
HETATM   25  C   UNL     1       4.455  -8.318  14.138  1.00  0.00     0.152 C 
HETATM   26  H   UNL     1       5.131  -9.501  11.867  1.00  0.00     0.169 HD
ENDBRANCH   4  20
TORSDOF 5
ENDMDL
MODEL 6
REMARK VINA RESULT:       0.0     11.720     13.444
REMARK  5 active torsions:
REMARK  status: ('A' for Active; 'I' for Inactive)
REMARK    1  A    between atoms: C_2  and  C_3 
REMARK    2  A    between atoms: C_6  and  S_7 
REMARK    3  A    between atoms: S_7  and  N_10 
REMARK    4  A    between atoms: N_10  and  C_11 
REMARK    5  A    between atoms: C_14  and  N_15 
REMARK       I    between atoms: N_15  and  C_16 
REMARK       I    between atoms: C_16  and  N_18 
ROOT
HETATM    1  C   UNL     1      -4.001  -3.808   2.415  1.00  0.00     0.042 A 
HETATM    2  C   UNL     1      -5.383  -4.275   2.763  1.00  0.00     0.032 A 
HETATM    3  C   UNL     1      -6.385  -4.529   1.676  1.00  0.00     0.032 A 
HETATM    4  C   UNL     1      -6.005  -4.315   0.241  1.00  0.00     0.035 A 
HETATM    5  C   UNL     1      -4.622  -3.848  -0.107  1.00  0.00     0.032 A 
HETATM    6  C   UNL     1      -3.621  -3.594   0.980  1.00  0.00     0.032 A 
ENDROOT
BRANCH   1   7
HETATM    7  N   UNL     1      -2.999  -3.554   3.502  1.00  0.00    -0.281 N 
HETATM    8  H   UNL     1      -3.265  -3.059   4.311  1.00  0.00     0.179 HD
BRANCH   7   9
HETATM    9  S   UNL     1      -1.592  -4.053   3.357  1.00  0.00     0.263 S 
HETATM   10  O   UNL     1      -2.077  -5.464   3.510  1.00  0.00    -0.200 OA
HETATM   11  O   UNL     1      -1.107  -2.642   3.204  1.00  0.00    -0.200 OA
BRANCH   9  12
HETATM   12  C   UNL     1      -0.185  -4.553   3.212  1.00  0.00     0.079 A 
HETATM   13  C   UNL     1       0.105  -5.734   2.334  1.00  0.00     0.026 A 
HETATM   14  C   UNL     1       1.511  -6.233   2.189  1.00  0.00     0.009 A 
HETATM   15  C   UNL     1       2.629  -5.552   2.922  1.00  0.00    -0.058 A 
HETATM   16  C   UNL     1       2.339  -4.371   3.800  1.00  0.00     0.009 A 
HETATM   17  C   UNL     1       0.932  -3.872   3.945  1.00  0.00     0.026 A 
BRANCH  15  18
HETATM   18  C   UNL     1       4.035  -6.051   2.777  1.00  0.00     0.034 C 
HETATM   19  C   UNL     1       5.060  -5.722   3.822  1.00  0.00     0.010 C 
ENDBRANCH  15  18
ENDBRANCH   9  12
ENDBRANCH   7   9
ENDBRANCH   1   7
BRANCH   4  20
HETATM   20  N   UNL     1      -7.006  -4.569  -0.846  1.00  0.00    -0.320 N 
HETATM   21  C   UNL     1      -7.088  -5.921  -1.491  1.00  0.00     0.253 C 
HETATM   22  O   UNL     1      -6.167  -7.020  -1.048  1.00  0.00    -0.151 OA
HETATM   23  N   UNL     1      -8.089  -6.175  -2.578  1.00  0.00    -0.354 N 
HETATM   24  C   UNL     1      -8.171  -7.527  -3.222  1.00  0.00     0.152 C 
HETATM   25  C   UNL     1      -9.010  -5.077  -3.020  1.00  0.00     0.152 C 
HETATM   26  H   UNL     1      -7.611  -3.848  -1.137  1.00  0.00     0.169 HD
ENDBRANCH   4  20
TORSDOF 5
ENDMDL
MODEL 7
REMARK VINA RESULT:       0.0     10.191     14.014
REMARK  5 active torsions:
REMARK  status: ('A' for Active; 'I' for Inactive)
REMARK    1  A    between atoms: C_2  and  C_3 
REMARK    2  A    between atoms: C_6  and  S_7 
REMARK    3  A    between atoms: S_7  and  N_10 
REMARK    4  A    between atoms: N_10  and  C_11 
REMARK    5  A    between atoms: C_14  and  N_15 
REMARK       I    between atoms: N_15  and  C_16 
REMARK       I    between atoms: C_16  and  N_18 
ROOT
HETATM    1  C   UNL     1       6.897  -3.005  -1.949  1.00  0.00     0.042 A 
HETATM    2  C   UNL     1       8.111  -2.124  -1.959  1.00  0.00     0.032 A 
HETATM    3  C   UNL     1       8.733  -1.689  -0.666  1.00  0.00     0.032 A 
HETATM    4  C   UNL     1       8.140  -2.133   0.639  1.00  0.00     0.035 A 
HETATM    5  C   UNL     1       6.926  -3.014   0.649  1.00  0.00     0.032 A 
HETATM    6  C   UNL     1       6.304  -3.449  -0.644  1.00  0.00     0.032 A 
ENDROOT
BRANCH   1   7
HETATM    7  N   UNL     1       6.275  -3.440  -3.242  1.00  0.00    -0.281 N 
HETATM    8  H   UNL     1       5.297  -3.408  -3.354  1.00  0.00     0.179 HD
BRANCH   7   9
HETATM    9  S   UNL     1       7.142  -3.926  -4.365  1.00  0.00     0.263 S 
HETATM   10  O   UNL     1       7.481  -5.154  -3.573  1.00  0.00    -0.200 OA
HETATM   11  O   UNL     1       6.804  -2.698  -5.158  1.00  0.00    -0.200 OA
BRANCH   9  12
HETATM   12  C   UNL     1       8.010  -4.412  -5.488  1.00  0.00     0.079 A 
HETATM   13  C   UNL     1       7.532  -4.303  -6.906  1.00  0.00     0.026 A 
HETATM   14  C   UNL     1       8.400  -4.788  -8.029  1.00  0.00     0.009 A 
HETATM   15  C   UNL     1       9.745  -5.383  -7.735  1.00  0.00    -0.058 A 
HETATM   16  C   UNL     1      10.223  -5.492  -6.317  1.00  0.00     0.009 A 
HETATM   17  C   UNL     1       9.355  -5.006  -5.194  1.00  0.00     0.026 A 
BRANCH  15  18
HETATM   18  C   UNL     1      10.613  -5.868  -8.858  1.00  0.00     0.034 C 
HETATM   19  C   UNL     1      11.961  -6.458  -8.564  1.00  0.00     0.010 C 
ENDBRANCH  15  18
ENDBRANCH   9  12
ENDBRANCH   7   9
ENDBRANCH   1   7
BRANCH   4  20
HETATM   20  N   UNL     1       8.762  -1.698   1.932  1.00  0.00    -0.320 N 
HETATM   21  C   UNL     1       9.873  -2.502   2.539  1.00  0.00     0.253 C 
HETATM   22  O   UNL     1      10.363  -3.742   1.851  1.00  0.00    -0.151 OA
HETATM   23  N   UNL     1      10.495  -2.066   3.832  1.00  0.00    -0.354 N 
HETATM   24  C   UNL     1      11.607  -2.871   4.439  1.00  0.00     0.152 C 
HETATM   25  C   UNL     1      10.006  -0.826   4.520  1.00  0.00     0.152 C 
HETATM   26  H   UNL     1       8.441  -0.883   2.384  1.00  0.00     0.169 HD
ENDBRANCH   4  20
TORSDOF 5
ENDMDL
MODEL 8
REMARK VINA RESULT:       0.0      7.398      9.182
REMARK  5 active torsions:
REMARK  status: ('A' for Active; 'I' for Inactive)
REMARK    1  A    between atoms: C_2  and  C_3 
REMARK    2  A    between atoms: C_6  and  S_7 
REMARK    3  A    between atoms: S_7  and  N_10 
REMARK    4  A    between atoms: N_10  and  C_11 
REMARK    5  A    between atoms: C_14  and  N_15 
REMARK       I    between atoms: N_15  and  C_16 
REMARK       I    between atoms: C_16  and  N_18 
ROOT
HETATM    1  C   UNL     1       3.652   0.244  -0.164  1.00  0.00     0.042 A 
HETATM    2  C   UNL     1       2.789   1.282   0.491  1.00  0.00     0.032 A 
HETATM    3  C   UNL     1       3.357   2.630   0.821  1.00  0.00     0.032 A 
HETATM    4  C   UNL     1       4.788   2.941   0.496  1.00  0.00     0.035 A 
HETATM    5  C   UNL     1       5.651   1.904  -0.160  1.00  0.00     0.032 A 
HETATM    6  C   UNL     1       5.083   0.556  -0.490  1.00  0.00     0.032 A 
ENDROOT
BRANCH   1   7
HETATM    7  N   UNL     1       3.084  -1.104  -0.495  1.00  0.00    -0.281 N 
HETATM    8  H   UNL     1       2.195  -1.175  -0.911  1.00  0.00     0.179 HD
BRANCH   7   9
HETATM    9  S   UNL     1       3.871  -2.344  -0.190  1.00  0.00     0.263 S 
HETATM   10  O   UNL     1       4.070  -2.578  -1.659  1.00  0.00    -0.200 OA
HETATM   11  O   UNL     1       3.672  -2.111   1.278  1.00  0.00    -0.200 OA
BRANCH   9  12
HETATM   12  C   UNL     1       4.658  -3.584   0.114  1.00  0.00     0.079 A 
HETATM   13  C   UNL     1       5.684  -3.572   1.208  1.00  0.00     0.026 A 
HETATM   14  C   UNL     1       6.471  -4.812   1.512  1.00  0.00     0.009 A 
HETATM   15  C   UNL     1       6.232  -6.065   0.722  1.00  0.00    -0.058 A 
HETATM   16  C   UNL     1       5.206  -6.077  -0.372  1.00  0.00     0.009 A 
HETATM   17  C   UNL     1       4.419  -4.837  -0.676  1.00  0.00     0.026 A 
BRANCH  15  18
HETATM   18  C   UNL     1       7.019  -7.305   1.026  1.00  0.00     0.034 C 
HETATM   19  C   UNL     1       6.472  -8.651   0.654  1.00  0.00     0.010 C 
ENDBRANCH  15  18
ENDBRANCH   9  12
ENDBRANCH   7   9
ENDBRANCH   1   7
BRANCH   4  20
HETATM   20  N   UNL     1       5.356   4.290   0.826  1.00  0.00    -0.320 N 
HETATM   21  C   UNL     1       6.002   4.526   2.159  1.00  0.00     0.253 C 
HETATM   22  O   UNL     1       6.081   3.413   3.162  1.00  0.00    -0.151 OA
HETATM   23  N   UNL     1       6.570   5.874   2.489  1.00  0.00    -0.354 N 
HETATM   24  C   UNL     1       7.217   6.110   3.822  1.00  0.00     0.152 C 
HETATM   25  C   UNL     1       6.492   6.987   1.486  1.00  0.00     0.152 C 
HETATM   26  H   UNL     1       5.305   5.021   0.168  1.00  0.00     0.169 HD
ENDBRANCH   4  20
TORSDOF 5
ENDMDL
MODEL 9
REMARK VINA RESULT:       0.0     13.557     16.789
REMARK  5 active torsions:
REMARK  status: ('A' for Active; 'I' for Inactive)
REMARK    1  A    between atoms: C_2  and  C_3 
REMARK    2  A    between atoms: C_6  and  S_7 
REMARK    3  A    between atoms: S_7  and  N_10 
REMARK    4  A    between atoms: N_10  and  C_11 
REMARK    5  A    between atoms: C_14  and  N_15 
REMARK       I    between atoms: N_15  and  C_16 
REMARK       I    between atoms: C_16  and  N_18 
ROOT
HETATM    1  C   UNL     1      -5.612  -1.127  -8.534  1.00  0.00     0.042 A 
HETATM    2  C   UNL     1      -5.164  -1.695  -7.220  1.00  0.00     0.032 A 
HETATM    3  C   UNL     1      -4.286  -0.885  -6.313  1.00  0.00     0.032 A 
HETATM    4  C   UNL     1      -3.856   0.493  -6.720  1.00  0.00     0.035 A 
HETATM    5  C   UNL     1      -4.304   1.062  -8.034  1.00  0.00     0.032 A 
HETATM    6  C   UNL     1      -5.183   0.252  -8.941  1.00  0.00     0.032 A 
ENDROOT
BRANCH   1   7
HETATM    7  N   UNL     1      -6.491  -1.937  -9.440  1.00  0.00    -0.281 N 
HETATM    8  H   UNL     1      -6.303  -2.892  -9.584  1.00  0.00     0.179 HD
BRANCH   7   9
HETATM    9  S   UNL     1      -7.656  -1.291 -10.129  1.00  0.00     0.263 S 
HETATM   10  O   UNL     1      -6.948  -1.417 -11.445  1.00  0.00    -0.200 OA
HETATM   11  O   UNL     1      -8.364  -1.165  -8.813  1.00  0.00    -0.200 OA
BRANCH   9  12
HETATM   12  C   UNL     1      -8.822  -0.645 -10.818  1.00  0.00     0.079 A 
HETATM   13  C   UNL     1      -9.445   0.590 -10.238  1.00  0.00     0.026 A 
HETATM   14  C   UNL     1     -10.611   1.236 -10.927  1.00  0.00     0.009 A 
HETATM   15  C   UNL     1     -11.153   0.647 -12.195  1.00  0.00    -0.058 A 
HETATM   16  C   UNL     1     -10.530  -0.588 -12.775  1.00  0.00     0.009 A 
HETATM   17  C   UNL     1      -9.364  -1.234 -12.086  1.00  0.00     0.026 A 
BRANCH  15  18
HETATM   18  C   UNL     1     -12.319   1.293 -12.884  1.00  0.00     0.034 C 
HETATM   19  C   UNL     1     -13.047   0.561 -13.971  1.00  0.00     0.010 C 
ENDBRANCH  15  18
ENDBRANCH   9  12
ENDBRANCH   7   9
ENDBRANCH   1   7
BRANCH   4  20
HETATM   20  N   UNL     1      -2.978   1.303  -5.813  1.00  0.00    -0.320 N 
HETATM   21  C   UNL     1      -3.591   2.208  -4.786  1.00  0.00     0.253 C 
HETATM   22  O   UNL     1      -5.084   2.303  -4.666  1.00  0.00    -0.151 OA
HETATM   23  N   UNL     1      -2.713   3.018  -3.879  1.00  0.00    -0.354 N 
HETATM   24  C   UNL     1      -3.327   3.923  -2.852  1.00  0.00     0.152 C 
HETATM   25  C   UNL     1      -1.221   2.923  -3.999  1.00  0.00     0.152 C 
HETATM   26  H   UNL     1      -1.998   1.242  -5.892  1.00  0.00     0.169 HD
ENDBRANCH   4  20
TORSDOF 5
ENDMDL
