REMARK  7 active torsions:
REMARK  status: ('A' for Active; 'I' for Inactive)
REMARK    1  A    between atoms: C_8  and  N_9 
REMARK       I    between atoms: N_9  and  C_10 
REMARK    2  A    between atoms: C_10  and  C_12 
REMARK    3  A    between atoms: C_17  and  N_18 
REMARK    4  A    between atoms: N_18  and  C_19 
REMARK    5  A    between atoms: C_19  and  C_20 
REMARK    6  A    between atoms: C_20  and  C_21 
REMARK    7  A    between atoms: C_21  and  O_22 
ROOT
HETATM    1  C   UNL     1       1.500   5.196   0.000  1.00  0.00     0.044 A 
HETATM    2  C   UNL     1       3.000   5.196   0.000  1.00  0.00     0.018 A 
HETATM    3  C   UNL     1       3.750   6.495   0.000  1.00  0.00     0.001 A 
HETATM    4  C   UNL     1       3.000   7.794   0.000  1.00  0.00     0.002 A 
HETATM    5  C   UNL     1       1.500   7.794   0.000  1.00  0.00     0.030 A 
HETATM    6  C   UNL     1       0.750   6.495   0.000  1.00  0.00     0.042 A 
ENDROOT
BRANCH   1   7
HETATM    7  C   UNL     1       0.750   3.897   0.000  1.00  0.00     0.192 C 
HETATM    8  N   UNL     1       1.500   2.598   0.000  1.00  0.00    -0.333 N 
HETATM    9  H   UNL     1       2.484   2.598   0.000  1.00  0.00     0.168 HD
HETATM   10  O   UNL     1      -0.750   3.897   0.000  1.00  0.00    -0.171 OA
BRANCH   8  11
HETATM   11  C   UNL     1       0.750   1.299   0.000  1.00  0.00     0.043 A 
HETATM   12  C   UNL     1       1.500   0.000   0.000  1.00  0.00    -0.035 A 
HETATM   13  C   UNL     1       3.000   0.000   0.000  1.00  0.00     0.050 C 
HETATM   14  C   UNL     1       0.750  -1.299   0.000  1.00  0.00     0.012 A 
HETATM   15  C   UNL     1      -0.750  -1.299   0.000  1.00  0.00     0.043 A 
HETATM   16  C   UNL     1      -1.500   0.000   0.000  1.00  0.00     0.118 A 
HETATM   17  F   UNL     1      -3.000   0.000   0.000  1.00  0.00    -0.206 F 
HETATM   18  C   UNL     1      -0.750   1.299   0.000  1.00  0.00     0.072 A 
ENDBRANCH   8  11
ENDBRANCH   1   7
BRANCH   6  19
HETATM   19  N   UNL     1      -0.750   6.495   0.000  1.00  0.00    -0.389 N 
HETATM   20  H   UNL     1      -1.242   5.643   0.000  1.00  0.00     0.159 HD
BRANCH  19  21
HETATM   21  C   UNL     1      -1.500   7.794   0.000  1.00  0.00     0.122 C 
BRANCH  21  22
HETATM   22  C   UNL     1      -3.000   7.794   0.000  1.00  0.00     0.045 C 
BRANCH  22  23
HETATM   23  C   UNL     1      -3.750   9.093   0.000  1.00  0.00     0.165 C 
BRANCH  23  24
HETATM   24  O   UNL     1      -5.250   9.093   0.000  1.00  0.00    -0.401 OA
HETATM   25  H   UNL     1      -5.735   9.933   0.000  1.00  0.00     0.209 HD
ENDBRANCH  23  24
ENDBRANCH  22  23
ENDBRANCH  21  22
ENDBRANCH  19  21
ENDBRANCH   6  19
TORSDOF 7
