REMARK  4 active torsions:
REMARK  status: ('A' for Active; 'I' for Inactive)
REMARK    1  A    between atoms: C_2  and  C_4 
REMARK    2  A    between atoms: C_6  and  C_7 
REMARK       I    between atoms: C_7  and  N_9 
REMARK    3  A    between atoms: N_9  and  C_10 
REMARK    4  A    between atoms: C_10  and  C_11 
ROOT
HETATM    1  C   UNL     1      -1.500  -2.598   0.000  1.00  0.00    -0.043 A 
HETATM    2  C   UNL     1      -0.750  -3.897   0.000  1.00  0.00     0.024 A 
HETATM    3  C   UNL     1       0.750  -3.897   0.000  1.00  0.00     0.019 A 
HETATM    4  C   UNL     1       1.500  -2.598   0.000  1.00  0.00     0.028 A 
HETATM    5  C   UNL     1       0.750  -1.299   0.000  1.00  0.00    -0.025 A 
HETATM    6  C   UNL     1       1.500   0.000   0.000  1.00  0.00     0.012 A 
HETATM    7  C   UNL     1       0.750   1.299   0.000  1.00  0.00     0.001 A 
HETATM    8  C   UNL     1      -0.750   1.299   0.000  1.00  0.00     0.001 A 
HETATM    9  C   UNL     1      -1.500   0.000   0.000  1.00  0.00     0.004 A 
HETATM   10  C   UNL     1      -0.750  -1.299   0.000  1.00  0.00    -0.019 A 
ENDROOT
BRANCH   3  11
HETATM   11  C   UNL     1       1.500  -5.196   0.000  1.00  0.00     0.185 C 
HETATM   12  O   UNL     1       3.000  -5.196   0.000  1.00  0.00    -0.172 OA
HETATM   13  N   UNL     1       0.750  -6.495   0.000  1.00  0.00    -0.362 N 
HETATM   14  H   UNL     1      -0.234  -6.495   0.000  1.00  0.00     0.162 HD
BRANCH  13  15
HETATM   15  C   UNL     1       1.500  -7.794   0.000  1.00  0.00     0.186 C 
BRANCH  15  16
HETATM   16  C   UNL     1       0.750  -9.093   0.000  1.00  0.00     0.070 A 
HETATM   17  C   UNL     1       1.360 -10.464   0.000  1.00  0.00     0.036 A 
HETATM   18  C   UNL     1       0.245 -11.467   0.000  1.00  0.00     0.027 A 
HETATM   19  C   UNL     1      -1.054 -10.717   0.000  1.00  0.00     0.142 A 
HETATM   20  O   UNL     1      -0.742  -9.250   0.000  1.00  0.00    -0.325 OA
ENDBRANCH  15  16
ENDBRANCH  13  15
ENDBRANCH   3  11
BRANCH   1  21
HETATM   21  C   UNL     1      -3.000  -2.598   0.000  1.00  0.00     0.011 C 
HETATM   22  C   UNL     1      -3.750  -3.897   0.000  1.00  0.00     0.015 C 
HETATM   23  C   UNL     1      -3.750  -1.299   0.000  1.00  0.00     0.023 C 
ENDBRANCH   1  21
TORSDOF 4
