REMARK  5 active torsions:
REMARK  status: ('A' for Active; 'I' for Inactive)
REMARK    1  A    between atoms: C_2  and  C_3 
REMARK    2  A    between atoms: C_6  and  S_7 
REMARK    3  A    between atoms: S_7  and  N_10 
REMARK    4  A    between atoms: N_10  and  C_11 
REMARK    5  A    between atoms: C_14  and  N_15 
REMARK       I    between atoms: N_15  and  C_16 
REMARK       I    between atoms: C_16  and  N_18 
ROOT
HETATM    1  C   UNL     1      -5.250  -1.299   0.000  1.00  0.00     0.042 A 
HETATM    2  C   UNL     1      -6.750  -1.299   0.000  1.00  0.00     0.032 A 
HETATM    3  C   UNL     1      -7.500  -2.598   0.000  1.00  0.00     0.032 A 
HETATM    4  C   UNL     1      -6.750  -3.897   0.000  1.00  0.00     0.035 A 
HETATM    5  C   UNL     1      -5.250  -3.897   0.000  1.00  0.00     0.032 A 
HETATM    6  C   UNL     1      -4.500  -2.598   0.000  1.00  0.00     0.032 A 
ENDROOT
BRANCH   1   7
HETATM    7  N   UNL     1      -4.500   0.000   0.000  1.00  0.00    -0.281 N 
HETATM    8  H   UNL     1      -4.992   0.853   0.000  1.00  0.00     0.179 HD
BRANCH   7   9
HETATM    9  S   UNL     1      -3.000   0.000   0.000  1.00  0.00     0.263 S 
HETATM   10  O   UNL     1      -3.000   1.500   0.000  1.00  0.00    -0.200 OA
HETATM   11  O   UNL     1      -3.000  -1.500   0.000  1.00  0.00    -0.200 OA
BRANCH   9  12
HETATM   12  C   UNL     1      -1.500   0.000   0.000  1.00  0.00     0.079 A 
HETATM   13  C   UNL     1      -0.750  -1.299   0.000  1.00  0.00     0.026 A 
HETATM   14  C   UNL     1       0.750  -1.299   0.000  1.00  0.00     0.009 A 
HETATM   15  C   UNL     1       1.500   0.000   0.000  1.00  0.00    -0.058 A 
HETATM   16  C   UNL     1       0.750   1.299   0.000  1.00  0.00     0.009 A 
HETATM   17  C   UNL     1      -0.750   1.299   0.000  1.00  0.00     0.026 A 
BRANCH  15  18
HETATM   18  C   UNL     1       3.000   0.000   0.000  1.00  0.00     0.034 C 
HETATM   19  C   UNL     1       3.750  -1.299   0.000  1.00  0.00     0.010 C 
ENDBRANCH  15  18
ENDBRANCH   9  12
ENDBRANCH   7   9
ENDBRANCH   1   7
BRANCH   4  20
HETATM   20  N   UNL     1      -7.500  -5.196   0.000  1.00  0.00    -0.320 N 
HETATM   21  C   UNL     1      -9.000  -5.196   0.000  1.00  0.00     0.253 C 
HETATM   22  O   UNL     1      -9.750  -3.897   0.000  1.00  0.00    -0.151 OA
HETATM   23  N   UNL     1      -9.750  -6.495   0.000  1.00  0.00    -0.354 N 
HETATM   24  C   UNL     1     -11.250  -6.495   0.000  1.00  0.00     0.152 C 
HETATM   25  C   UNL     1      -9.000  -7.794   0.000  1.00  0.00     0.152 C 
HETATM   26  H   UNL     1      -7.008  -6.049   0.000  1.00  0.00     0.169 HD
ENDBRANCH   4  20
TORSDOF 5
