REMARK  6 active torsions:
REMARK  status: ('A' for Active; 'I' for Inactive)
REMARK    1  A    between atoms: C_2  and  C_4 
REMARK    2  A    between atoms: C_4  and  C_5 
REMARK    3  A    between atoms: C_5  and  C_6 
REMARK       I    between atoms: C_6  and  N_8 
REMARK    4  A    between atoms: N_8  and  C_9 
REMARK    5  A    between atoms: C_14  and  N_15 
REMARK       I    between atoms: N_15  and  C_16 
REMARK    6  A    between atoms: C_16  and  C_18 
ROOT
HETATM    1  C   UNL     1       1.500   0.000   0.000  1.00  0.00     0.060 A 
HETATM    2  C   UNL     1       0.750  -1.299   0.000  1.00  0.00     0.032 A 
HETATM    3  C   UNL     1      -0.750  -1.299   0.000  1.00  0.00     0.002 A 
HETATM    4  C   UNL     1      -1.500   0.000   0.000  1.00  0.00     0.002 A 
HETATM    5  C   UNL     1      -0.750   1.299   0.000  1.00  0.00     0.032 A 
HETATM    6  C   UNL     1       0.750   1.299   0.000  1.00  0.00     0.061 A 
ENDROOT
BRANCH   6   7
HETATM    7  N   UNL     1       1.500   2.598   0.000  1.00  0.00    -0.332 N 
HETATM    8  C   UNL     1       0.750   3.897   0.000  1.00  0.00     0.189 C 
HETATM    9  O   UNL     1      -0.750   3.897   0.000  1.00  0.00    -0.171 OA
HETATM   10  H   UNL     1       2.484   2.598   0.000  1.00  0.00     0.168 HD
BRANCH   8  11
HETATM   11  C   UNL     1       1.500   5.196   0.000  1.00  0.00     0.018 A 
HETATM   12  C   UNL     1       3.000   5.196   0.000  1.00  0.00     0.016 A 
HETATM   13  C   UNL     1       3.750   6.495   0.000  1.00  0.00     0.007 A 
HETATM   14  C   UNL     1       3.000   7.794   0.000  1.00  0.00    -0.062 A 
HETATM   15  C   UNL     1       3.750   9.093   0.000  1.00  0.00     0.048 C 
HETATM   16  C   UNL     1       1.500   7.794   0.000  1.00  0.00     0.007 A 
HETATM   17  C   UNL     1       0.750   6.495   0.000  1.00  0.00     0.016 A 
ENDBRANCH   8  11
ENDBRANCH   6   7
BRANCH   1  18
HETATM   18  N   UNL     1       3.000   0.000   0.000  1.00  0.00    -0.336 N 
HETATM   19  C   UNL     1       3.750  -1.299   0.000  1.00  0.00     0.156 C 
HETATM   20  O   UNL     1       3.000  -2.598   0.000  1.00  0.00    -0.177 OA
HETATM   21  H   UNL     1       3.492   0.853   0.000  1.00  0.00     0.168 HD
BRANCH  19  22
HETATM   22  C   UNL     1       5.250  -1.299   0.000  1.00  0.00     0.090 C 
BRANCH  22  23
HETATM   23  C   UNL     1       6.000  -2.598   0.000  1.00  0.00     0.052 C 
BRANCH  23  24
HETATM   24  C   UNL     1       7.500  -2.598   0.000  1.00  0.00     0.127 C 
HETATM   25  C   UNL     1       8.250  -3.897   0.000  1.00  0.00     0.052 C 
HETATM   26  O   UNL     1       8.250  -1.299   0.000  1.00  0.00    -0.226 OA
ENDBRANCH  23  24
ENDBRANCH  22  23
ENDBRANCH  19  22
ENDBRANCH   1  18
TORSDOF 6
