MODEL 1
REMARK VINA RESULT:      -0.0      0.000      0.000
REMARK  3 active torsions:
REMARK  status: ('A' for Active; 'I' for Inactive)
REMARK    1  A    between atoms: C_8  and  N_9 
REMARK       I    between atoms: N_9  and  C_10 
REMARK    2  A    between atoms: C_10  and  C_12 
REMARK    3  A    between atoms: C_15  and  N_16 
ROOT
HETATM    1  N   UNL     1      -4.238  11.985  -1.536  1.00  0.00    -0.333 N 
HETATM    2  C   UNL     1      -4.751  13.260  -2.136  1.00  0.00     0.189 C 
HETATM    3  O   UNL     1      -3.795  14.358  -2.496  1.00  0.00    -0.171 OA
HETATM    4  H   UNL     1      -4.865  11.264  -1.300  1.00  0.00     0.168 HD
ENDROOT
BRANCH   2   5
HETATM    5  C   UNL     1      -6.221  13.436  -2.378  1.00  0.00     0.018 A 
HETATM    6  C   UNL     1      -6.901  14.709  -1.968  1.00  0.00     0.018 A 
HETATM    7  C   UNL     1      -8.371  14.886  -2.210  1.00  0.00     0.030 A 
HETATM    8  C   UNL     1      -9.161  13.789  -2.860  1.00  0.00     0.025 A 
HETATM    9  C   UNL     1      -8.481  12.516  -3.269  1.00  0.00     0.030 A 
HETATM   10  C   UNL     1      -7.011  12.340  -3.028  1.00  0.00     0.018 A 
BRANCH   8  11
HETATM   11  N   UNL     1     -10.631  13.966  -3.101  1.00  0.00    -0.399 N 
HETATM   12  H   UNL     1     -11.158  14.554  -2.515  1.00  0.00     0.156 HD
HETATM   13  H   UNL     1     -11.068  13.493  -3.846  1.00  0.00     0.156 HD
ENDBRANCH   8  11
ENDBRANCH   2   5
BRANCH   1  14
HETATM   14  C   UNL     1      -2.768  11.808  -1.295  1.00  0.00     0.043 A 
HETATM   15  C   UNL     1      -1.909  11.160  -2.339  1.00  0.00    -0.035 A 
HETATM   16  C   UNL     1      -2.520  10.688  -3.626  1.00  0.00     0.050 C 
HETATM   17  C   UNL     1      -0.439  10.984  -2.098  1.00  0.00     0.012 A 
HETATM   18  C   UNL     1       0.172  11.455  -0.812  1.00  0.00     0.043 A 
HETATM   19  C   UNL     1      -0.687  12.104   0.233  1.00  0.00     0.118 A 
HETATM   20  F   UNL     1      -0.076  12.575   1.519  1.00  0.00    -0.206 F 
HETATM   21  C   UNL     1      -2.157  12.280  -0.008  1.00  0.00     0.072 A 
ENDBRANCH   1  14
TORSDOF 3
ENDMDL
MODEL 2
REMARK VINA RESULT:      -0.0     16.753     17.410
REMARK  3 active torsions:
REMARK  status: ('A' for Active; 'I' for Inactive)
REMARK    1  A    between atoms: C_8  and  N_9 
REMARK       I    between atoms: N_9  and  C_10 
REMARK    2  A    between atoms: C_10  and  C_12 
REMARK    3  A    between atoms: C_15  and  N_16 
ROOT
HETATM    1  N   UNL     1      -2.659  -1.009   6.331  1.00  0.00    -0.333 N 
HETATM    2  C   UNL     1      -2.740  -2.492   6.120  1.00  0.00     0.189 C 
HETATM    3  O   UNL     1      -2.575  -3.425   7.283  1.00  0.00    -0.171 OA
HETATM    4  H   UNL     1      -2.768  -0.397   5.569  1.00  0.00     0.168 HD
ENDROOT
BRANCH   2   5
HETATM    5  C   UNL     1      -2.985  -3.041   4.746  1.00  0.00     0.018 A 
HETATM    6  C   UNL     1      -4.006  -4.121   4.542  1.00  0.00     0.018 A 
HETATM    7  C   UNL     1      -4.252  -4.671   3.168  1.00  0.00     0.030 A 
HETATM    8  C   UNL     1      -3.477  -4.141   1.999  1.00  0.00     0.025 A 
HETATM    9  C   UNL     1      -2.456  -3.061   2.203  1.00  0.00     0.030 A 
HETATM   10  C   UNL     1      -2.210  -2.511   3.577  1.00  0.00     0.018 A 
BRANCH   8  11
HETATM   11  N   UNL     1      -3.722  -4.690   0.625  1.00  0.00    -0.399 N 
HETATM   12  H   UNL     1      -4.161  -4.133  -0.057  1.00  0.00     0.156 HD
HETATM   13  H   UNL     1      -3.444  -5.609   0.405  1.00  0.00     0.156 HD
ENDBRANCH   8  11
ENDBRANCH   2   5
BRANCH   1  14
HETATM   14  C   UNL     1      -2.414  -0.459   7.705  1.00  0.00     0.043 A 
HETATM   15  C   UNL     1      -1.014  -0.168   8.157  1.00  0.00    -0.035 A 
HETATM   16  C   UNL     1       0.141  -0.426   7.235  1.00  0.00     0.050 C 
HETATM   17  C   UNL     1      -0.768   0.382   9.531  1.00  0.00     0.012 A 
HETATM   18  C   UNL     1      -1.923   0.640  10.453  1.00  0.00     0.043 A 
HETATM   19  C   UNL     1      -3.323   0.349  10.001  1.00  0.00     0.118 A 
HETATM   20  F   UNL     1      -4.478   0.607  10.923  1.00  0.00    -0.206 F 
HETATM   21  C   UNL     1      -3.569  -0.201   8.627  1.00  0.00     0.072 A 
ENDBRANCH   1  14
TORSDOF 3
ENDMDL
MODEL 3
REMARK VINA RESULT:      -0.0     16.326     19.551
REMARK  3 active torsions:
REMARK  status: ('A' for Active; 'I' for Inactive)
REMARK    1  A    between atoms: C_8  and  N_9 
REMARK       I    between atoms: N_9  and  C_10 
REMARK    2  A    between atoms: C_10  and  C_12 
REMARK    3  A    between atoms: C_15  and  N_16 
ROOT
HETATM    1  N   UNL     1       4.019  -1.974   5.083  1.00  0.00    -0.333 N 
HETATM    2  C   UNL     1       4.106  -2.863   3.878  1.00  0.00     0.189 C 
HETATM    3  O   UNL     1       3.535  -2.409   2.568  1.00  0.00    -0.171 OA
HETATM    4  H   UNL     1       4.393  -2.272   5.943  1.00  0.00     0.168 HD
ENDROOT
BRANCH   2   5
HETATM    5  C   UNL     1       4.765  -4.207   3.984  1.00  0.00     0.018 A 
HETATM    6  C   UNL     1       4.100  -5.416   3.397  1.00  0.00     0.018 A 
HETATM    7  C   UNL     1       4.758  -6.760   3.502  1.00  0.00     0.030 A 
HETATM    8  C   UNL     1       6.082  -6.893   4.196  1.00  0.00     0.025 A 
HETATM    9  C   UNL     1       6.747  -5.684   4.783  1.00  0.00     0.030 A 
HETATM   10  C   UNL     1       6.088  -4.340   4.677  1.00  0.00     0.018 A 
BRANCH   8  11
HETATM   11  N   UNL     1       6.740  -8.237   4.301  1.00  0.00    -0.399 N 
HETATM   12  H   UNL     1       6.501  -8.953   3.670  1.00  0.00     0.156 HD
HETATM   13  H   UNL     1       7.412  -8.403   5.002  1.00  0.00     0.156 HD
ENDBRANCH   8  11
ENDBRANCH   2   5
BRANCH   1  14
HETATM   14  C   UNL     1       3.360  -0.630   4.977  1.00  0.00     0.043 A 
HETATM   15  C   UNL     1       4.182   0.586   4.671  1.00  0.00    -0.035 A 
HETATM   16  C   UNL     1       5.663   0.459   4.470  1.00  0.00     0.050 C 
HETATM   17  C   UNL     1       3.524   1.930   4.565  1.00  0.00     0.012 A 
HETATM   18  C   UNL     1       2.043   2.057   4.766  1.00  0.00     0.043 A 
HETATM   19  C   UNL     1       1.220   0.840   5.072  1.00  0.00     0.118 A 
HETATM   20  F   UNL     1      -0.261   0.967   5.273  1.00  0.00    -0.206 F 
HETATM   21  C   UNL     1       1.879  -0.503   5.178  1.00  0.00     0.072 A 
ENDBRANCH   1  14
TORSDOF 3
ENDMDL
MODEL 4
REMARK VINA RESULT:      -0.0      7.838      9.244
REMARK  3 active torsions:
REMARK  status: ('A' for Active; 'I' for Inactive)
REMARK    1  A    between atoms: C_8  and  N_9 
REMARK       I    between atoms: N_9  and  C_10 
REMARK    2  A    between atoms: C_10  and  C_12 
REMARK    3  A    between atoms: C_15  and  N_16 
ROOT
HETATM    1  N   UNL     1       0.355   4.913  -2.870  1.00  0.00    -0.333 N 
HETATM    2  C   UNL     1       0.021   6.258  -2.296  1.00  0.00     0.189 C 
HETATM    3  O   UNL     1       0.686   7.489  -2.834  1.00  0.00    -0.171 OA
HETATM    4  H   UNL     1      -0.081   4.105  -2.517  1.00  0.00     0.168 HD
ENDROOT
BRANCH   2   5
HETATM    5  C   UNL     1      -0.977   6.370  -1.182  1.00  0.00     0.018 A 
HETATM    6  C   UNL     1      -0.672   7.219   0.017  1.00  0.00     0.018 A 
HETATM    7  C   UNL     1      -1.670   7.331   1.130  1.00  0.00     0.030 A 
HETATM    8  C   UNL     1      -2.975   6.596   1.045  1.00  0.00     0.025 A 
HETATM    9  C   UNL     1      -3.281   5.748  -0.154  1.00  0.00     0.030 A 
HETATM   10  C   UNL     1      -2.282   5.635  -1.267  1.00  0.00     0.018 A 
BRANCH   8  11
HETATM   11  N   UNL     1      -3.973   6.709   2.159  1.00  0.00    -0.399 N 
HETATM   12  H   UNL     1      -4.936   6.710   1.957  1.00  0.00     0.156 HD
HETATM   13  H   UNL     1      -3.665   6.781   3.091  1.00  0.00     0.156 HD
ENDBRANCH   8  11
ENDBRANCH   2   5
BRANCH   1  14
HETATM   14  C   UNL     1       1.354   4.800  -3.984  1.00  0.00     0.043 A 
HETATM   15  C   UNL     1       0.891   4.819  -5.410  1.00  0.00    -0.035 A 
HETATM   16  C   UNL     1      -0.570   4.950  -5.724  1.00  0.00     0.050 C 
HETATM   17  C   UNL     1       1.890   4.706  -6.524  1.00  0.00     0.012 A 
HETATM   18  C   UNL     1       3.351   4.575  -6.211  1.00  0.00     0.043 A 
HETATM   19  C   UNL     1       3.813   4.556  -4.784  1.00  0.00     0.118 A 
HETATM   20  F   UNL     1       5.274   4.424  -4.471  1.00  0.00    -0.206 F 
HETATM   21  C   UNL     1       2.815   4.669  -3.670  1.00  0.00     0.072 A 
ENDBRANCH   1  14
TORSDOF 3
ENDMDL
MODEL 5
REMARK VINA RESULT:      -0.0     18.170     20.601
REMARK  3 active torsions:
REMARK  status: ('A' for Active; 'I' for Inactive)
REMARK    1  A    between atoms: C_8  and  N_9 
REMARK       I    between atoms: N_9  and  C_10 
REMARK    2  A    between atoms: C_10  and  C_12 
REMARK    3  A    between atoms: C_15  and  N_16 
ROOT
HETATM    1  N   UNL     1       3.952  -4.745   2.425  1.00  0.00    -0.333 N 
HETATM    2  C   UNL     1       2.991  -5.720   3.037  1.00  0.00     0.189 C 
HETATM    3  O   UNL     1       2.621  -5.600   4.486  1.00  0.00    -0.171 OA
HETATM    4  H   UNL     1       4.195  -4.824   1.475  1.00  0.00     0.168 HD
ENDROOT
BRANCH   2   5
HETATM    5  C   UNL     1       2.399  -6.816   2.201  1.00  0.00     0.018 A 
HETATM    6  C   UNL     1       2.361  -8.221   2.724  1.00  0.00     0.018 A 
HETATM    7  C   UNL     1       1.770  -9.317   1.887  1.00  0.00     0.030 A 
HETATM    8  C   UNL     1       1.217  -9.007   0.528  1.00  0.00     0.025 A 
HETATM    9  C   UNL     1       1.255  -7.602   0.005  1.00  0.00     0.030 A 
HETATM   10  C   UNL     1       1.846  -6.506   0.841  1.00  0.00     0.018 A 
BRANCH   8  11
HETATM   11  N   UNL     1       0.626 -10.103  -0.309  1.00  0.00    -0.399 N 
HETATM   12  H   UNL     1       0.661 -10.046  -1.291  1.00  0.00     0.156 HD
HETATM   13  H   UNL     1       0.202 -10.879   0.124  1.00  0.00     0.156 HD
ENDBRANCH   8  11
ENDBRANCH   2   5
BRANCH   1  14
HETATM   14  C   UNL     1       4.543  -3.649   3.262  1.00  0.00     0.043 A 
HETATM   15  C   UNL     1       3.880  -2.305   3.315  1.00  0.00    -0.035 A 
HETATM   16  C   UNL     1       2.625  -2.056   2.532  1.00  0.00     0.050 C 
HETATM   17  C   UNL     1       4.471  -1.209   4.152  1.00  0.00     0.012 A 
HETATM   18  C   UNL     1       5.726  -1.458   4.935  1.00  0.00     0.043 A 
HETATM   19  C   UNL     1       6.389  -2.802   4.882  1.00  0.00     0.118 A 
HETATM   20  F   UNL     1       7.644  -3.050   5.665  1.00  0.00    -0.206 F 
HETATM   21  C   UNL     1       5.798  -3.897   4.045  1.00  0.00     0.072 A 
ENDBRANCH   1  14
TORSDOF 3
ENDMDL
MODEL 6
REMARK VINA RESULT:       0.0      8.750     11.295
REMARK  3 active torsions:
REMARK  status: ('A' for Active; 'I' for Inactive)
REMARK    1  A    between atoms: C_8  and  N_9 
REMARK       I    between atoms: N_9  and  C_10 
REMARK    2  A    between atoms: C_10  and  C_12 
REMARK    3  A    between atoms: C_15  and  N_16 
ROOT
HETATM    1  N   UNL     1      -2.141   5.550  -7.543  1.00  0.00    -0.333 N 
HETATM    2  C   UNL     1      -2.787   5.115  -8.826  1.00  0.00     0.189 C 
HETATM    3  O   UNL     1      -3.399   6.135  -9.740  1.00  0.00    -0.171 OA
HETATM    4  H   UNL     1      -1.739   4.881  -6.944  1.00  0.00     0.168 HD
ENDROOT
BRANCH   2   5
HETATM    5  C   UNL     1      -2.820   3.662  -9.194  1.00  0.00     0.018 A 
HETATM    6  C   UNL     1      -2.448   3.231 -10.582  1.00  0.00     0.018 A 
HETATM    7  C   UNL     1      -2.482   1.777 -10.950  1.00  0.00     0.030 A 
HETATM    8  C   UNL     1      -2.887   0.754  -9.930  1.00  0.00     0.025 A 
HETATM    9  C   UNL     1      -3.260   1.185  -8.543  1.00  0.00     0.030 A 
HETATM   10  C   UNL     1      -3.226   2.639  -8.175  1.00  0.00     0.018 A 
BRANCH   8  11
HETATM   11  N   UNL     1      -2.921  -0.699 -10.299  1.00  0.00    -0.399 N 
HETATM   12  H   UNL     1      -2.195  -1.087 -10.838  1.00  0.00     0.156 HD
HETATM   13  H   UNL     1      -3.669  -1.266 -10.001  1.00  0.00     0.156 HD
ENDBRANCH   8  11
ENDBRANCH   2   5
BRANCH   1  14
HETATM   14  C   UNL     1      -2.107   7.003  -7.175  1.00  0.00     0.043 A 
HETATM   15  C   UNL     1      -3.197   7.587  -6.325  1.00  0.00    -0.035 A 
HETATM   16  C   UNL     1      -4.319   6.716  -5.842  1.00  0.00     0.050 C 
HETATM   17  C   UNL     1      -3.163   9.040  -5.956  1.00  0.00     0.012 A 
HETATM   18  C   UNL     1      -2.040   9.911  -6.439  1.00  0.00     0.043 A 
HETATM   19  C   UNL     1      -0.951   9.327  -7.289  1.00  0.00     0.118 A 
HETATM   20  F   UNL     1       0.171  10.197  -7.771  1.00  0.00    -0.206 F 
HETATM   21  C   UNL     1      -0.985   7.873  -7.657  1.00  0.00     0.072 A 
ENDBRANCH   1  14
TORSDOF 3
ENDMDL
MODEL 7
REMARK VINA RESULT:       0.0     19.908     22.505
REMARK  3 active torsions:
REMARK  status: ('A' for Active; 'I' for Inactive)
REMARK    1  A    between atoms: C_8  and  N_9 
REMARK       I    between atoms: N_9  and  C_10 
REMARK    2  A    between atoms: C_10  and  C_12 
REMARK    3  A    between atoms: C_15  and  N_16 
ROOT
HETATM    1  N   UNL     1       6.752  -6.985   1.451  1.00  0.00    -0.333 N 
HETATM    2  C   UNL     1       6.374  -5.730   0.721  1.00  0.00     0.189 C 
HETATM    3  O   UNL     1       6.829  -5.517  -0.692  1.00  0.00    -0.171 OA
HETATM    4  H   UNL     1       6.454  -7.124   2.378  1.00  0.00     0.168 HD
ENDROOT
BRANCH   2   5
HETATM    5  C   UNL     1       5.540  -4.687   1.405  1.00  0.00     0.018 A 
HETATM    6  C   UNL     1       4.368  -4.079   0.694  1.00  0.00     0.018 A 
HETATM    7  C   UNL     1       3.535  -3.036   1.378  1.00  0.00     0.030 A 
HETATM    8  C   UNL     1       3.873  -2.602   2.774  1.00  0.00     0.025 A 
HETATM    9  C   UNL     1       5.045  -3.210   3.485  1.00  0.00     0.030 A 
HETATM   10  C   UNL     1       5.879  -4.253   2.801  1.00  0.00     0.018 A 
BRANCH   8  11
HETATM   11  N   UNL     1       3.039  -1.559   3.458  1.00  0.00    -0.399 N 
HETATM   12  H   UNL     1       3.458  -0.730   3.783  1.00  0.00     0.156 HD
HETATM   13  H   UNL     1       2.073  -1.704   3.581  1.00  0.00     0.156 HD
ENDBRANCH   8  11
ENDBRANCH   2   5
BRANCH   1  14
HETATM   14  C   UNL     1       7.586  -8.027   0.767  1.00  0.00     0.043 A 
HETATM   15  C   UNL     1       9.079  -8.005   0.908  1.00  0.00    -0.035 A 
HETATM   16  C   UNL     1       9.739  -6.940   1.734  1.00  0.00     0.050 C 
HETATM   17  C   UNL     1       9.913  -9.047   0.224  1.00  0.00     0.012 A 
HETATM   18  C   UNL     1       9.254 -10.112  -0.602  1.00  0.00     0.043 A 
HETATM   19  C   UNL     1       7.760 -10.134  -0.743  1.00  0.00     0.118 A 
HETATM   20  F   UNL     1       7.101 -11.199  -1.569  1.00  0.00    -0.206 F 
HETATM   21  C   UNL     1       6.927  -9.092  -0.059  1.00  0.00     0.072 A 
ENDBRANCH   1  14
TORSDOF 3
ENDMDL
MODEL 8
REMARK VINA RESULT:       0.0     19.523     22.172
REMARK  3 active torsions:
REMARK  status: ('A' for Active; 'I' for Inactive)
REMARK    1  A    between atoms: C_8  and  N_9 
REMARK       I    between atoms: N_9  and  C_10 
REMARK    2  A    between atoms: C_10  and  C_12 
REMARK    3  A    between atoms: C_15  and  N_16 
ROOT
HETATM    1  N   UNL     1       7.682  -6.333   0.342  1.00  0.00    -0.333 N 
HETATM    2  C   UNL     1       6.918  -5.162  -0.201  1.00  0.00     0.189 C 
HETATM    3  O   UNL     1       7.324  -4.540  -1.504  1.00  0.00    -0.171 OA
HETATM    4  H   UNL     1       7.415  -6.741   1.197  1.00  0.00     0.168 HD
ENDROOT
BRANCH   2   5
HETATM    5  C   UNL     1       5.748  -4.612   0.559  1.00  0.00     0.018 A 
HETATM    6  C   UNL     1       4.465  -4.306  -0.156  1.00  0.00     0.018 A 
HETATM    7  C   UNL     1       3.295  -3.757   0.605  1.00  0.00     0.030 A 
HETATM    8  C   UNL     1       3.407  -3.512   2.080  1.00  0.00     0.025 A 
HETATM    9  C   UNL     1       4.690  -3.818   2.796  1.00  0.00     0.030 A 
HETATM   10  C   UNL     1       5.860  -4.368   2.035  1.00  0.00     0.018 A 
BRANCH   8  11
HETATM   11  N   UNL     1       2.237  -2.963   2.841  1.00  0.00    -0.399 N 
HETATM   12  H   UNL     1       2.328  -2.121   3.342  1.00  0.00     0.156 HD
HETATM   13  H   UNL     1       1.378  -3.444   2.839  1.00  0.00     0.156 HD
ENDBRANCH   8  11
ENDBRANCH   2   5
BRANCH   1  14
HETATM   14  C   UNL     1       8.852  -6.883  -0.419  1.00  0.00     0.043 A 
HETATM   15  C   UNL     1      10.237  -6.390  -0.123  1.00  0.00    -0.035 A 
HETATM   16  C   UNL     1      10.452  -5.346   0.933  1.00  0.00     0.050 C 
HETATM   17  C   UNL     1      11.407  -6.939  -0.884  1.00  0.00     0.012 A 
HETATM   18  C   UNL     1      11.192  -7.983  -1.940  1.00  0.00     0.043 A 
HETATM   19  C   UNL     1       9.807  -8.476  -2.235  1.00  0.00     0.118 A 
HETATM   20  F   UNL     1       9.592  -9.519  -3.291  1.00  0.00    -0.206 F 
HETATM   21  C   UNL     1       8.637  -7.926  -1.475  1.00  0.00     0.072 A 
ENDBRANCH   1  14
TORSDOF 3
ENDMDL
MODEL 9
REMARK VINA RESULT:       0.0     16.616     19.589
REMARK  3 active torsions:
REMARK  status: ('A' for Active; 'I' for Inactive)
REMARK    1  A    between atoms: C_8  and  N_9 
REMARK       I    between atoms: N_9  and  C_10 
REMARK    2  A    between atoms: C_10  and  C_12 
REMARK    3  A    between atoms: C_15  and  N_16 
ROOT
HETATM    1  N   UNL     1      10.400   0.823   3.463  1.00  0.00    -0.333 N 
HETATM    2  C   UNL     1       9.074   0.946   4.153  1.00  0.00     0.189 C 
HETATM    3  O   UNL     1       8.354  -0.285   4.620  1.00  0.00    -0.171 OA
HETATM    4  H   UNL     1      10.872   1.630   3.157  1.00  0.00     0.168 HD
ENDROOT
BRANCH   2   5
HETATM    5  C   UNL     1       8.467   2.299   4.376  1.00  0.00     0.018 A 
HETATM    6  C   UNL     1       7.896   2.654   5.717  1.00  0.00     0.018 A 
HETATM    7  C   UNL     1       7.289   4.007   5.939  1.00  0.00     0.030 A 
HETATM    8  C   UNL     1       7.253   5.006   4.821  1.00  0.00     0.025 A 
HETATM    9  C   UNL     1       7.824   4.652   3.480  1.00  0.00     0.030 A 
HETATM   10  C   UNL     1       8.431   3.298   3.257  1.00  0.00     0.018 A 
BRANCH   8  11
HETATM   11  N   UNL     1       6.646   6.360   5.044  1.00  0.00    -0.399 N 
HETATM   12  H   UNL     1       5.978   6.488   5.755  1.00  0.00     0.156 HD
HETATM   13  H   UNL     1       6.916   7.120   4.479  1.00  0.00     0.156 HD
ENDBRANCH   8  11
ENDBRANCH   2   5
BRANCH   1  14
HETATM   14  C   UNL     1      11.007  -0.530   3.241  1.00  0.00     0.043 A 
HETATM   15  C   UNL     1      10.755  -1.264   1.957  1.00  0.00    -0.035 A 
HETATM   16  C   UNL     1       9.895  -0.643   0.895  1.00  0.00     0.050 C 
HETATM   17  C   UNL     1      11.362  -2.617   1.734  1.00  0.00     0.012 A 
HETATM   18  C   UNL     1      12.221  -3.237   2.795  1.00  0.00     0.043 A 
HETATM   19  C   UNL     1      12.474  -2.504   4.079  1.00  0.00     0.118 A 
HETATM   20  F   UNL     1      13.333  -3.125   5.140  1.00  0.00    -0.206 F 
HETATM   21  C   UNL     1      11.867  -1.151   4.302  1.00  0.00     0.072 A 
ENDBRANCH   1  14
TORSDOF 3
ENDMDL
