REMARK  4 active torsions:
REMARK  status: ('A' for Active; 'I' for Inactive)
REMARK    1  A    between atoms: C_2  and  N_5 
REMARK    2  A    between atoms: C_7  and  C_8 
REMARK       I    between atoms: C_8  and  N_10 
REMARK    3  A    between atoms: N_10  and  C_11 
REMARK    4  A    between atoms: C_15  and  C_16 
REMARK       I    between atoms: C_16  and  N_17 
ROOT
HETATM    1  N   UNL     1      -0.750  -3.897   0.000  1.00  0.00    -0.328 N 
HETATM    2  C   UNL     1       0.750  -3.897   0.000  1.00  0.00     0.100 A 
HETATM    3  C   UNL     1       1.500  -2.598   0.000  1.00  0.00     0.045 A 
HETATM    4  C   UNL     1       0.750  -1.299   0.000  1.00  0.00    -0.006 A 
HETATM    5  C   UNL     1       1.500   0.000   0.000  1.00  0.00     0.013 A 
HETATM    6  C   UNL     1       0.750   1.299   0.000  1.00  0.00     0.001 A 
HETATM    7  C   UNL     1      -0.750   1.299   0.000  1.00  0.00     0.001 A 
HETATM    8  C   UNL     1      -1.500   0.000   0.000  1.00  0.00     0.016 A 
HETATM    9  C   UNL     1      -0.750  -1.299   0.000  1.00  0.00     0.025 A 
HETATM   10  C   UNL     1      -1.500  -2.598   0.000  1.00  0.00     0.141 A 
HETATM   11  O   UNL     1      -3.000  -2.598   0.000  1.00  0.00    -0.394 OA
ENDROOT
BRANCH   3  12
HETATM   12  C   UNL     1       3.000  -2.598   0.000  1.00  0.00     0.192 C 
HETATM   13  O   UNL     1       3.750  -1.299   0.000  1.00  0.00    -0.171 OA
HETATM   14  N   UNL     1       3.750  -3.897   0.000  1.00  0.00    -0.334 N 
HETATM   15  H   UNL     1       3.258  -4.750   0.000  1.00  0.00     0.168 HD
BRANCH  14  16
HETATM   16  C   UNL     1       5.250  -3.897   0.000  1.00  0.00     0.035 A 
HETATM   17  C   UNL     1       6.000  -5.196   0.000  1.00  0.00     0.029 A 
HETATM   18  C   UNL     1       7.500  -5.196   0.000  1.00  0.00     0.003 A 
HETATM   19  C   UNL     1       8.250  -3.897   0.000  1.00  0.00     0.016 A 
HETATM   20  C   UNL     1       7.500  -2.598   0.000  1.00  0.00     0.019 A 
HETATM   21  C   UNL     1       6.000  -2.598   0.000  1.00  0.00     0.045 A 
BRANCH  20  22
HETATM   22  C   UNL     1       8.250  -1.299   0.000  1.00  0.00     0.182 C 
HETATM   23  N   UNL     1       9.750  -1.299   0.000  1.00  0.00    -0.377 N 
HETATM   24  H   UNL     1      10.242  -2.152   0.000  1.00  0.00     0.158 HD
HETATM   25  H   UNL     1      10.242  -0.446   0.000  1.00  0.00     0.158 HD
HETATM   26  O   UNL     1       7.500   0.000   0.000  1.00  0.00    -0.172 OA
ENDBRANCH  20  22
ENDBRANCH  14  16
ENDBRANCH   3  12
BRANCH   1  27
HETATM   27  C   UNL     1      -1.500  -5.196   0.000  1.00  0.00     0.030 C 
HETATM   28  C   UNL     1      -0.201  -5.946   0.000  1.00  0.00     0.049 C 
HETATM   29  C   UNL     1      -2.799  -4.446   0.000  1.00  0.00     0.318 C 
HETATM   30  C   UNL     1      -2.250  -6.495   0.000  1.00  0.00     0.038 C 
ENDBRANCH   1  27
TORSDOF 4
