MODEL 1
REMARK VINA RESULT:      -0.0      0.000      0.000
REMARK  7 active torsions:
REMARK  status: ('A' for Active; 'I' for Inactive)
REMARK    1  A    between atoms: C_8  and  N_9 
REMARK       I    between atoms: N_9  and  C_10 
REMARK    2  A    between atoms: C_10  and  C_12 
REMARK    3  A    between atoms: C_17  and  N_18 
REMARK    4  A    between atoms: N_18  and  C_19 
REMARK    5  A    between atoms: C_19  and  C_20 
REMARK    6  A    between atoms: C_20  and  C_21 
REMARK    7  A    between atoms: C_21  and  O_22 
ROOT
HETATM    1  C   UNL     1      -2.194   6.934   4.942  1.00  0.00     0.044 A 
HETATM    2  C   UNL     1      -2.411   7.966   3.874  1.00  0.00     0.018 A 
HETATM    3  C   UNL     1      -3.786   8.196   3.322  1.00  0.00     0.001 A 
HETATM    4  C   UNL     1      -4.945   7.395   3.836  1.00  0.00     0.002 A 
HETATM    5  C   UNL     1      -4.729   6.363   4.903  1.00  0.00     0.030 A 
HETATM    6  C   UNL     1      -3.353   6.133   5.456  1.00  0.00     0.042 A 
ENDROOT
BRANCH   1   7
HETATM    7  C   UNL     1      -0.819   6.704   5.494  1.00  0.00     0.192 C 
HETATM    8  N   UNL     1       0.360   6.644   4.570  1.00  0.00    -0.333 N 
HETATM    9  H   UNL     1       0.232   6.755   3.600  1.00  0.00     0.168 HD
HETATM   10  O   UNL     1      -0.623   6.533   6.972  1.00  0.00    -0.171 OA
BRANCH   8  11
HETATM   11  C   UNL     1       1.736   6.413   5.122  1.00  0.00     0.043 A 
HETATM   12  C   UNL     1       2.579   7.580   5.546  1.00  0.00    -0.035 A 
HETATM   13  C   UNL     1       2.046   8.976   5.417  1.00  0.00     0.050 C 
HETATM   14  C   UNL     1       3.954   7.349   6.099  1.00  0.00     0.012 A 
HETATM   15  C   UNL     1       4.486   5.953   6.228  1.00  0.00     0.043 A 
HETATM   16  C   UNL     1       3.643   4.787   5.804  1.00  0.00     0.118 A 
HETATM   17  F   UNL     1       4.175   3.390   5.933  1.00  0.00    -0.206 F 
HETATM   18  C   UNL     1       2.268   5.017   5.251  1.00  0.00     0.072 A 
ENDBRANCH   8  11
ENDBRANCH   1   7
BRANCH   6  19
HETATM   19  N   UNL     1      -3.137   5.101   6.523  1.00  0.00    -0.389 N 
HETATM   20  H   UNL     1      -2.921   5.381   7.441  1.00  0.00     0.159 HD
BRANCH  19  21
HETATM   21  C   UNL     1      -3.250   3.643   6.190  1.00  0.00     0.122 C 
BRANCH  21  22
HETATM   22  C   UNL     1      -2.177   2.971   5.386  1.00  0.00     0.045 C 
BRANCH  22  23
HETATM   23  C   UNL     1      -0.761   2.966   5.882  1.00  0.00     0.165 C 
BRANCH  23  24
HETATM   24  O   UNL     1      -0.418   3.636   7.179  1.00  0.00    -0.401 OA
HETATM   25  H   UNL     1      -0.836   3.342   8.003  1.00  0.00     0.209 HD
ENDBRANCH  23  24
ENDBRANCH  22  23
ENDBRANCH  21  22
ENDBRANCH  19  21
ENDBRANCH   6  19
TORSDOF 7
ENDMDL
MODEL 2
REMARK VINA RESULT:      -0.0     13.443     15.035
REMARK  7 active torsions:
REMARK  status: ('A' for Active; 'I' for Inactive)
REMARK    1  A    between atoms: C_8  and  N_9 
REMARK       I    between atoms: N_9  and  C_10 
REMARK    2  A    between atoms: C_10  and  C_12 
REMARK    3  A    between atoms: C_17  and  N_18 
REMARK    4  A    between atoms: N_18  and  C_19 
REMARK    5  A    between atoms: C_19  and  C_20 
REMARK    6  A    between atoms: C_20  and  C_21 
REMARK    7  A    between atoms: C_21  and  O_22 
ROOT
HETATM    1  C   UNL     1       5.195   2.887  -8.582  1.00  0.00     0.044 A 
HETATM    2  C   UNL     1       4.895   2.616 -10.026  1.00  0.00     0.018 A 
HETATM    3  C   UNL     1       5.772   3.196 -11.096  1.00  0.00     0.001 A 
HETATM    4  C   UNL     1       6.948   4.048 -10.722  1.00  0.00     0.002 A 
HETATM    5  C   UNL     1       7.248   4.320  -9.277  1.00  0.00     0.030 A 
HETATM    6  C   UNL     1       6.372   3.739  -8.207  1.00  0.00     0.042 A 
ENDROOT
BRANCH   1   7
HETATM    7  C   UNL     1       4.319   2.307  -7.512  1.00  0.00     0.192 C 
HETATM    8  N   UNL     1       3.857   0.883  -7.611  1.00  0.00    -0.333 N 
HETATM    9  H   UNL     1       4.128   0.330  -8.379  1.00  0.00     0.168 HD
HETATM   10  O   UNL     1       3.905   3.150  -6.342  1.00  0.00    -0.171 OA
BRANCH   8  11
HETATM   11  C   UNL     1       2.980   0.303  -6.541  1.00  0.00     0.043 A 
HETATM   12  C   UNL     1       1.489   0.421  -6.648  1.00  0.00    -0.035 A 
HETATM   13  C   UNL     1       0.874   1.120  -7.824  1.00  0.00     0.050 C 
HETATM   14  C   UNL     1       0.612  -0.159  -5.578  1.00  0.00     0.012 A 
HETATM   15  C   UNL     1       1.228  -0.858  -4.402  1.00  0.00     0.043 A 
HETATM   16  C   UNL     1       2.719  -0.977  -4.295  1.00  0.00     0.118 A 
HETATM   17  F   UNL     1       3.334  -1.676  -3.119  1.00  0.00    -0.206 F 
HETATM   18  C   UNL     1       3.595  -0.396  -5.365  1.00  0.00     0.072 A 
ENDBRANCH   8  11
ENDBRANCH   1   7
BRANCH   6  19
HETATM   19  N   UNL     1       6.672   4.011  -6.763  1.00  0.00    -0.389 N 
HETATM   20  H   UNL     1       6.079   4.596  -6.239  1.00  0.00     0.159 HD
BRANCH  19  21
HETATM   21  C   UNL     1       7.875   3.390  -6.117  1.00  0.00     0.122 C 
BRANCH  21  22
HETATM   22  C   UNL     1       7.883   1.925  -5.797  1.00  0.00     0.045 C 
BRANCH  22  23
HETATM   23  C   UNL     1       6.836   1.351  -4.889  1.00  0.00     0.165 C 
BRANCH  23  24
HETATM   24  O   UNL     1       5.778   2.240  -4.306  1.00  0.00    -0.401 OA
HETATM   25  H   UNL     1       5.034   1.854  -3.818  1.00  0.00     0.209 HD
ENDBRANCH  23  24
ENDBRANCH  22  23
ENDBRANCH  21  22
ENDBRANCH  19  21
ENDBRANCH   6  19
TORSDOF 7
ENDMDL
MODEL 3
REMARK VINA RESULT:      -0.0      7.684      8.870
REMARK  7 active torsions:
REMARK  status: ('A' for Active; 'I' for Inactive)
REMARK    1  A    between atoms: C_8  and  N_9 
REMARK       I    between atoms: N_9  and  C_10 
REMARK    2  A    between atoms: C_10  and  C_12 
REMARK    3  A    between atoms: C_17  and  N_18 
REMARK    4  A    between atoms: N_18  and  C_19 
REMARK    5  A    between atoms: C_19  and  C_20 
REMARK    6  A    between atoms: C_20  and  C_21 
REMARK    7  A    between atoms: C_21  and  O_22 
ROOT
HETATM    1  C   UNL     1       6.715   3.726   5.119  1.00  0.00     0.044 A 
HETATM    2  C   UNL     1       6.779   5.028   5.861  1.00  0.00     0.018 A 
HETATM    3  C   UNL     1       6.626   5.049   7.353  1.00  0.00     0.001 A 
HETATM    4  C   UNL     1       6.408   3.768   8.103  1.00  0.00     0.002 A 
HETATM    5  C   UNL     1       6.344   2.466   7.361  1.00  0.00     0.030 A 
HETATM    6  C   UNL     1       6.497   2.445   5.869  1.00  0.00     0.042 A 
ENDROOT
BRANCH   1   7
HETATM    7  C   UNL     1       6.868   3.705   3.627  1.00  0.00     0.192 C 
HETATM    8  N   UNL     1       6.170   4.733   2.787  1.00  0.00    -0.333 N 
HETATM    9  H   UNL     1       5.611   5.421   3.215  1.00  0.00     0.168 HD
HETATM   10  O   UNL     1       7.719   2.656   2.975  1.00  0.00    -0.171 OA
BRANCH   8  11
HETATM   11  C   UNL     1       6.323   4.712   1.295  1.00  0.00     0.043 A 
HETATM   12  C   UNL     1       7.448   5.463   0.646  1.00  0.00    -0.035 A 
HETATM   13  C   UNL     1       8.419   6.234   1.489  1.00  0.00     0.050 C 
HETATM   14  C   UNL     1       7.601   5.442  -0.846  1.00  0.00     0.012 A 
HETATM   15  C   UNL     1       6.629   4.670  -1.689  1.00  0.00     0.043 A 
HETATM   16  C   UNL     1       5.504   3.919  -1.040  1.00  0.00     0.118 A 
HETATM   17  F   UNL     1       4.533   3.148  -1.883  1.00  0.00    -0.206 F 
HETATM   18  C   UNL     1       5.351   3.940   0.452  1.00  0.00     0.072 A 
ENDBRANCH   8  11
ENDBRANCH   1   7
BRANCH   6  19
HETATM   19  N   UNL     1       6.433   1.143   5.127  1.00  0.00    -0.389 N 
HETATM   20  H   UNL     1       7.246   0.769   4.719  1.00  0.00     0.159 HD
BRANCH  19  21
HETATM   21  C   UNL     1       5.128   0.413   5.005  1.00  0.00     0.122 C 
BRANCH  21  22
HETATM   22  C   UNL     1       4.058   0.936   4.094  1.00  0.00     0.045 C 
BRANCH  22  23
HETATM   23  C   UNL     1       4.338   1.111   2.631  1.00  0.00     0.165 C 
BRANCH  23  24
HETATM   24  O   UNL     1       5.690   0.767   2.080  1.00  0.00    -0.401 OA
HETATM   25  H   UNL     1       5.912   0.995   1.163  1.00  0.00     0.209 HD
ENDBRANCH  23  24
ENDBRANCH  22  23
ENDBRANCH  21  22
ENDBRANCH  19  21
ENDBRANCH   6  19
TORSDOF 7
ENDMDL
MODEL 4
REMARK VINA RESULT:      -0.0     15.431     17.231
REMARK  7 active torsions:
REMARK  status: ('A' for Active; 'I' for Inactive)
REMARK    1  A    between atoms: C_8  and  N_9 
REMARK       I    between atoms: N_9  and  C_10 
REMARK    2  A    between atoms: C_10  and  C_12 
REMARK    3  A    between atoms: C_17  and  N_18 
REMARK    4  A    between atoms: N_18  and  C_19 
REMARK    5  A    between atoms: C_19  and  C_20 
REMARK    6  A    between atoms: C_20  and  C_21 
REMARK    7  A    between atoms: C_21  and  O_22 
ROOT
HETATM    1  C   UNL     1       6.997  -4.448  -2.826  1.00  0.00     0.044 A 
HETATM    2  C   UNL     1       8.111  -3.961  -1.948  1.00  0.00     0.018 A 
HETATM    3  C   UNL     1       8.077  -4.231  -0.473  1.00  0.00     0.001 A 
HETATM    4  C   UNL     1       6.928  -4.989   0.124  1.00  0.00     0.002 A 
HETATM    5  C   UNL     1       5.814  -5.476  -0.754  1.00  0.00     0.030 A 
HETATM    6  C   UNL     1       5.848  -5.206  -2.229  1.00  0.00     0.042 A 
ENDROOT
BRANCH   1   7
HETATM    7  C   UNL     1       7.032  -4.177  -4.301  1.00  0.00     0.192 C 
HETATM    8  N   UNL     1       8.310  -4.350  -5.065  1.00  0.00    -0.333 N 
HETATM    9  H   UNL     1       9.127  -4.640  -4.599  1.00  0.00     0.168 HD
HETATM   10  O   UNL     1       5.787  -3.734  -5.011  1.00  0.00    -0.171 OA
BRANCH   8  11
HETATM   11  C   UNL     1       8.345  -4.079  -6.540  1.00  0.00     0.043 A 
HETATM   12  C   UNL     1       8.646  -2.698  -7.042  1.00  0.00    -0.035 A 
HETATM   13  C   UNL     1       8.914  -1.588  -6.070  1.00  0.00     0.050 C 
HETATM   14  C   UNL     1       8.681  -2.428  -8.517  1.00  0.00     0.012 A 
HETATM   15  C   UNL     1       8.414  -3.538  -9.490  1.00  0.00     0.043 A 
HETATM   16  C   UNL     1       8.112  -4.919  -8.988  1.00  0.00     0.118 A 
HETATM   17  F   UNL     1       7.845  -6.029  -9.960  1.00  0.00    -0.206 F 
HETATM   18  C   UNL     1       8.078  -5.189  -7.513  1.00  0.00     0.072 A 
ENDBRANCH   8  11
ENDBRANCH   1   7
BRANCH   6  19
HETATM   19  N   UNL     1       4.734  -5.693  -3.107  1.00  0.00    -0.389 N 
HETATM   20  H   UNL     1       4.105  -5.050  -3.506  1.00  0.00     0.159 HD
BRANCH  19  21
HETATM   21  C   UNL     1       4.579  -7.160  -3.377  1.00  0.00     0.122 C 
BRANCH  21  22
HETATM   22  C   UNL     1       5.544  -7.862  -4.287  1.00  0.00     0.045 C 
BRANCH  22  23
HETATM   23  C   UNL     1       5.707  -7.402  -5.705  1.00  0.00     0.165 C 
BRANCH  23  24
HETATM   24  O   UNL     1       4.909  -6.238  -6.213  1.00  0.00    -0.401 OA
HETATM   25  H   UNL     1       4.332  -5.745  -5.609  1.00  0.00     0.209 HD
ENDBRANCH  23  24
ENDBRANCH  22  23
ENDBRANCH  21  22
ENDBRANCH  19  21
ENDBRANCH   6  19
TORSDOF 7
ENDMDL
MODEL 5
REMARK VINA RESULT:      -0.0      9.717     12.505
REMARK  7 active torsions:
REMARK  status: ('A' for Active; 'I' for Inactive)
REMARK    1  A    between atoms: C_8  and  N_9 
REMARK       I    between atoms: N_9  and  C_10 
REMARK    2  A    between atoms: C_10  and  C_12 
REMARK    3  A    between atoms: C_17  and  N_18 
REMARK    4  A    between atoms: N_18  and  C_19 
REMARK    5  A    between atoms: C_19  and  C_20 
REMARK    6  A    between atoms: C_20  and  C_21 
REMARK    7  A    between atoms: C_21  and  O_22 
ROOT
HETATM    1  C   UNL     1      -8.916   3.087   7.308  1.00  0.00     0.044 A 
HETATM    2  C   UNL     1      -8.050   2.448   8.354  1.00  0.00     0.018 A 
HETATM    3  C   UNL     1      -7.351   3.300   9.371  1.00  0.00     0.001 A 
HETATM    4  C   UNL     1      -7.517   4.791   9.343  1.00  0.00     0.002 A 
HETATM    5  C   UNL     1      -8.383   5.429   8.297  1.00  0.00     0.030 A 
HETATM    6  C   UNL     1      -9.082   4.577   7.280  1.00  0.00     0.042 A 
ENDROOT
BRANCH   1   7
HETATM    7  C   UNL     1      -9.615   2.235   6.291  1.00  0.00     0.192 C 
HETATM    8  N   UNL     1     -10.290   0.963   6.714  1.00  0.00    -0.333 N 
HETATM    9  H   UNL     1     -10.273   0.688   7.658  1.00  0.00     0.168 HD
HETATM   10  O   UNL     1      -9.640   2.654   4.851  1.00  0.00    -0.171 OA
BRANCH   8  11
HETATM   11  C   UNL     1     -10.989   0.111   5.696  1.00  0.00     0.043 A 
HETATM   12  C   UNL     1     -10.230  -0.954   4.961  1.00  0.00    -0.035 A 
HETATM   13  C   UNL     1      -8.773  -1.167   5.243  1.00  0.00     0.050 C 
HETATM   14  C   UNL     1     -10.930  -1.806   3.944  1.00  0.00     0.012 A 
HETATM   15  C   UNL     1     -12.387  -1.593   3.662  1.00  0.00     0.043 A 
HETATM   16  C   UNL     1     -13.146  -0.528   4.397  1.00  0.00     0.118 A 
HETATM   17  F   UNL     1     -14.604  -0.315   4.115  1.00  0.00    -0.206 F 
HETATM   18  C   UNL     1     -12.447   0.324   5.414  1.00  0.00     0.072 A 
ENDBRANCH   8  11
ENDBRANCH   1   7
BRANCH   6  19
HETATM   19  N   UNL     1      -9.948   5.216   6.235  1.00  0.00    -0.389 N 
HETATM   20  H   UNL     1      -9.656   5.229   5.295  1.00  0.00     0.159 HD
BRANCH  19  21
HETATM   21  C   UNL     1     -11.259   5.834   6.621  1.00  0.00     0.122 C 
BRANCH  21  22
HETATM   22  C   UNL     1     -12.421   4.959   6.988  1.00  0.00     0.045 C 
BRANCH  22  23
HETATM   23  C   UNL     1     -12.944   3.956   6.003  1.00  0.00     0.165 C 
BRANCH  23  24
HETATM   24  O   UNL     1     -12.301   3.822   4.655  1.00  0.00    -0.401 OA
HETATM   25  H   UNL     1     -12.627   4.349   3.908  1.00  0.00     0.209 HD
ENDBRANCH  23  24
ENDBRANCH  22  23
ENDBRANCH  21  22
ENDBRANCH  19  21
ENDBRANCH   6  19
TORSDOF 7
ENDMDL
MODEL 6
REMARK VINA RESULT:       0.0     11.217     14.304
REMARK  7 active torsions:
REMARK  status: ('A' for Active; 'I' for Inactive)
REMARK    1  A    between atoms: C_8  and  N_9 
REMARK       I    between atoms: N_9  and  C_10 
REMARK    2  A    between atoms: C_10  and  C_12 
REMARK    3  A    between atoms: C_17  and  N_18 
REMARK    4  A    between atoms: N_18  and  C_19 
REMARK    5  A    between atoms: C_19  and  C_20 
REMARK    6  A    between atoms: C_20  and  C_21 
REMARK    7  A    between atoms: C_21  and  O_22 
ROOT
HETATM    1  C   UNL     1      -2.236  -5.354   5.532  1.00  0.00     0.044 A 
HETATM    2  C   UNL     1      -2.852  -5.060   4.196  1.00  0.00     0.018 A 
HETATM    3  C   UNL     1      -2.080  -4.286   3.169  1.00  0.00     0.001 A 
HETATM    4  C   UNL     1      -0.693  -3.806   3.477  1.00  0.00     0.002 A 
HETATM    5  C   UNL     1      -0.077  -4.100   4.813  1.00  0.00     0.030 A 
HETATM    6  C   UNL     1      -0.849  -4.874   5.840  1.00  0.00     0.042 A 
ENDROOT
BRANCH   1   7
HETATM    7  C   UNL     1      -3.008  -6.128   6.559  1.00  0.00     0.192 C 
HETATM    8  N   UNL     1      -3.803  -7.332   6.150  1.00  0.00    -0.333 N 
HETATM    9  H   UNL     1      -3.819  -7.614   5.207  1.00  0.00     0.168 HD
HETATM   10  O   UNL     1      -2.984  -5.698   7.996  1.00  0.00    -0.171 OA
BRANCH   8  11
HETATM   11  C   UNL     1      -4.575  -8.106   7.177  1.00  0.00     0.043 A 
HETATM   12  C   UNL     1      -6.007  -7.760   7.457  1.00  0.00    -0.035 A 
HETATM   13  C   UNL     1      -6.667  -6.639   6.710  1.00  0.00     0.050 C 
HETATM   14  C   UNL     1      -6.778  -8.534   8.484  1.00  0.00     0.012 A 
HETATM   15  C   UNL     1      -6.118  -9.655   9.231  1.00  0.00     0.043 A 
HETATM   16  C   UNL     1      -4.685 -10.001   8.951  1.00  0.00     0.118 A 
HETATM   17  F   UNL     1      -4.025 -11.122   9.698  1.00  0.00    -0.206 F 
HETATM   18  C   UNL     1      -3.914  -9.227   7.924  1.00  0.00     0.072 A 
ENDBRANCH   8  11
ENDBRANCH   1   7
BRANCH   6  19
HETATM   19  N   UNL     1      -0.233  -5.169   7.176  1.00  0.00    -0.389 N 
HETATM   20  H   UNL     1      -0.576  -4.725   7.985  1.00  0.00     0.159 HD
BRANCH  19  21
HETATM   21  C   UNL     1       0.906  -6.139   7.280  1.00  0.00     0.122 C 
BRANCH  21  22
HETATM   22  C   UNL     1       0.652  -7.611   7.135  1.00  0.00     0.045 C 
BRANCH  22  23
HETATM   23  C   UNL     1      -0.326  -8.296   8.042  1.00  0.00     0.165 C 
BRANCH  23  24
HETATM   24  O   UNL     1      -1.010  -7.522   9.129  1.00  0.00    -0.401 OA
HETATM   25  H   UNL     1      -1.972  -7.586   9.238  1.00  0.00     0.209 HD
ENDBRANCH  23  24
ENDBRANCH  22  23
ENDBRANCH  21  22
ENDBRANCH  19  21
ENDBRANCH   6  19
TORSDOF 7
ENDMDL
MODEL 7
REMARK VINA RESULT:       0.0     10.220     12.879
REMARK  7 active torsions:
REMARK  status: ('A' for Active; 'I' for Inactive)
REMARK    1  A    between atoms: C_8  and  N_9 
REMARK       I    between atoms: N_9  and  C_10 
REMARK    2  A    between atoms: C_10  and  C_12 
REMARK    3  A    between atoms: C_17  and  N_18 
REMARK    4  A    between atoms: N_18  and  C_19 
REMARK    5  A    between atoms: C_19  and  C_20 
REMARK    6  A    between atoms: C_20  and  C_21 
REMARK    7  A    between atoms: C_21  and  O_22 
ROOT
HETATM    1  C   UNL     1       8.004  -2.127  12.067  1.00  0.00     0.044 A 
HETATM    2  C   UNL     1       9.485  -2.324  12.194  1.00  0.00     0.018 A 
HETATM    3  C   UNL     1      10.038  -3.685  12.497  1.00  0.00     0.001 A 
HETATM    4  C   UNL     1       9.108  -4.849  12.672  1.00  0.00     0.002 A 
HETATM    5  C   UNL     1       7.627  -4.652  12.544  1.00  0.00     0.030 A 
HETATM    6  C   UNL     1       7.075  -3.291  12.242  1.00  0.00     0.042 A 
ENDROOT
BRANCH   1   7
HETATM    7  C   UNL     1       7.452  -0.765  11.764  1.00  0.00     0.192 C 
HETATM    8  N   UNL     1       8.004   0.441  12.464  1.00  0.00    -0.333 N 
HETATM    9  H   UNL     1       8.728   0.339  13.123  1.00  0.00     0.168 HD
HETATM   10  O   UNL     1       6.347  -0.610  10.761  1.00  0.00    -0.171 OA
BRANCH   8  11
HETATM   11  C   UNL     1       7.451   1.802  12.162  1.00  0.00     0.043 A 
HETATM   12  C   UNL     1       8.039   2.620  11.050  1.00  0.00    -0.035 A 
HETATM   13  C   UNL     1       9.180   2.076  10.241  1.00  0.00     0.050 C 
HETATM   14  C   UNL     1       7.487   3.981  10.747  1.00  0.00     0.012 A 
HETATM   15  C   UNL     1       6.347   4.525  11.556  1.00  0.00     0.043 A 
HETATM   16  C   UNL     1       5.759   3.707  12.668  1.00  0.00     0.118 A 
HETATM   17  F   UNL     1       4.619   4.251  13.477  1.00  0.00    -0.206 F 
HETATM   18  C   UNL     1       6.311   2.346  12.971  1.00  0.00     0.072 A 
ENDBRANCH   8  11
ENDBRANCH   1   7
BRANCH   6  19
HETATM   19  N   UNL     1       5.593  -3.094  12.114  1.00  0.00    -0.389 N 
HETATM   20  H   UNL     1       5.196  -2.907  11.234  1.00  0.00     0.159 HD
BRANCH  19  21
HETATM   21  C   UNL     1       4.717  -3.182  13.329  1.00  0.00     0.122 C 
BRANCH  21  22
HETATM   22  C   UNL     1       4.732  -2.080  14.346  1.00  0.00     0.045 C 
BRANCH  22  23
HETATM   23  C   UNL     1       4.387  -0.678  13.938  1.00  0.00     0.165 C 
BRANCH  23  24
HETATM   24  O   UNL     1       4.031  -0.378  12.512  1.00  0.00    -0.401 OA
HETATM   25  H   UNL     1       4.454   0.363  12.052  1.00  0.00     0.209 HD
ENDBRANCH  23  24
ENDBRANCH  22  23
ENDBRANCH  21  22
ENDBRANCH  19  21
ENDBRANCH   6  19
TORSDOF 7
ENDMDL
MODEL 8
REMARK VINA RESULT:       0.0     10.567     12.918
REMARK  7 active torsions:
REMARK  status: ('A' for Active; 'I' for Inactive)
REMARK    1  A    between atoms: C_8  and  N_9 
REMARK       I    between atoms: N_9  and  C_10 
REMARK    2  A    between atoms: C_10  and  C_12 
REMARK    3  A    between atoms: C_17  and  N_18 
REMARK    4  A    between atoms: N_18  and  C_19 
REMARK    5  A    between atoms: C_19  and  C_20 
REMARK    6  A    between atoms: C_20  and  C_21 
REMARK    7  A    between atoms: C_21  and  O_22 
ROOT
HETATM    1  C   UNL     1      -1.751  -4.557   0.978  1.00  0.00     0.044 A 
HETATM    2  C   UNL     1      -0.599  -3.616   1.169  1.00  0.00     0.018 A 
HETATM    3  C   UNL     1       0.789  -4.157   1.345  1.00  0.00     0.001 A 
HETATM    4  C   UNL     1       1.025  -5.639   1.329  1.00  0.00     0.002 A 
HETATM    5  C   UNL     1      -0.128  -6.579   1.138  1.00  0.00     0.030 A 
HETATM    6  C   UNL     1      -1.516  -6.038   0.962  1.00  0.00     0.042 A 
ENDROOT
BRANCH   1   7
HETATM    7  C   UNL     1      -3.139  -4.016   0.802  1.00  0.00     0.192 C 
HETATM    8  N   UNL     1      -3.621  -2.891   1.669  1.00  0.00    -0.333 N 
HETATM    9  H   UNL     1      -3.026  -2.507   2.352  1.00  0.00     0.168 HD
HETATM   10  O   UNL     1      -4.046  -4.601  -0.240  1.00  0.00    -0.171 OA
BRANCH   8  11
HETATM   11  C   UNL     1      -5.009  -2.350   1.493  1.00  0.00     0.043 A 
HETATM   12  C   UNL     1      -5.263  -1.237   0.520  1.00  0.00    -0.035 A 
HETATM   13  C   UNL     1      -4.128  -0.665  -0.278  1.00  0.00     0.050 C 
HETATM   14  C   UNL     1      -6.651  -0.696   0.344  1.00  0.00     0.012 A 
HETATM   15  C   UNL     1      -7.785  -1.268   1.142  1.00  0.00     0.043 A 
HETATM   16  C   UNL     1      -7.531  -2.381   2.115  1.00  0.00     0.118 A 
HETATM   17  F   UNL     1      -8.666  -2.953   2.912  1.00  0.00    -0.206 F 
HETATM   18  C   UNL     1      -6.143  -2.922   2.290  1.00  0.00     0.072 A 
ENDBRANCH   8  11
ENDBRANCH   1   7
BRANCH   6  19
HETATM   19  N   UNL     1      -2.669  -6.979   0.771  1.00  0.00    -0.389 N 
HETATM   20  H   UNL     1      -3.115  -7.039  -0.104  1.00  0.00     0.159 HD
BRANCH  19  21
HETATM   21  C   UNL     1      -3.141  -7.828   1.914  1.00  0.00     0.122 C 
BRANCH  21  22
HETATM   22  C   UNL     1      -3.895  -7.205   3.050  1.00  0.00     0.045 C 
BRANCH  22  23
HETATM   23  C   UNL     1      -5.177  -6.472   2.787  1.00  0.00     0.165 C 
BRANCH  23  24
HETATM   24  O   UNL     1      -5.703  -6.360   1.387  1.00  0.00    -0.401 OA
HETATM   25  H   UNL     1      -5.183  -6.704   0.644  1.00  0.00     0.209 HD
ENDBRANCH  23  24
ENDBRANCH  22  23
ENDBRANCH  21  22
ENDBRANCH  19  21
ENDBRANCH   6  19
TORSDOF 7
ENDMDL
MODEL 9
REMARK VINA RESULT:       0.0      7.992     10.631
REMARK  7 active torsions:
REMARK  status: ('A' for Active; 'I' for Inactive)
REMARK    1  A    between atoms: C_8  and  N_9 
REMARK       I    between atoms: N_9  and  C_10 
REMARK    2  A    between atoms: C_10  and  C_12 
REMARK    3  A    between atoms: C_17  and  N_18 
REMARK    4  A    between atoms: N_18  and  C_19 
REMARK    5  A    between atoms: C_19  and  C_20 
REMARK    6  A    between atoms: C_20  and  C_21 
REMARK    7  A    between atoms: C_21  and  O_22 
ROOT
HETATM    1  C   UNL     1       5.461  -1.729   4.622  1.00  0.00     0.044 A 
HETATM    2  C   UNL     1       5.887  -1.948   3.200  1.00  0.00     0.018 A 
HETATM    3  C   UNL     1       4.890  -1.803   2.088  1.00  0.00     0.001 A 
HETATM    4  C   UNL     1       3.468  -1.440   2.398  1.00  0.00     0.002 A 
HETATM    5  C   UNL     1       3.043  -1.221   3.820  1.00  0.00     0.030 A 
HETATM    6  C   UNL     1       4.039  -1.366   4.932  1.00  0.00     0.042 A 
ENDROOT
BRANCH   1   7
HETATM    7  C   UNL     1       6.458  -1.873   5.734  1.00  0.00     0.192 C 
HETATM    8  N   UNL     1       7.835  -1.297   5.586  1.00  0.00    -0.333 N 
HETATM    9  H   UNL     1       8.084  -0.825   4.760  1.00  0.00     0.168 HD
HETATM   10  O   UNL     1       6.077  -2.594   6.993  1.00  0.00    -0.171 OA
BRANCH   8  11
HETATM   11  C   UNL     1       8.831  -1.442   6.698  1.00  0.00     0.043 A 
HETATM   12  C   UNL     1       9.726  -2.644   6.751  1.00  0.00    -0.035 A 
HETATM   13  C   UNL     1       9.625  -3.702   5.693  1.00  0.00     0.050 C 
HETATM   14  C   UNL     1      10.723  -2.789   7.863  1.00  0.00     0.012 A 
HETATM   15  C   UNL     1      10.824  -1.731   8.922  1.00  0.00     0.043 A 
HETATM   16  C   UNL     1       9.929  -0.528   8.868  1.00  0.00     0.118 A 
HETATM   17  F   UNL     1      10.030   0.530   9.927  1.00  0.00    -0.206 F 
HETATM   18  C   UNL     1       8.932  -0.384   7.756  1.00  0.00     0.072 A 
ENDBRANCH   8  11
ENDBRANCH   1   7
BRANCH   6  19
HETATM   19  N   UNL     1       3.614  -1.147   6.353  1.00  0.00    -0.389 N 
HETATM   20  H   UNL     1       3.556  -1.909   6.972  1.00  0.00     0.159 HD
BRANCH  19  21
HETATM   21  C   UNL     1       3.277   0.234   6.831  1.00  0.00     0.122 C 
BRANCH  21  22
HETATM   22  C   UNL     1       4.369   1.240   7.049  1.00  0.00     0.045 C 
BRANCH  22  23
HETATM   23  C   UNL     1       5.476   0.946   8.017  1.00  0.00     0.165 C 
BRANCH  23  24
HETATM   24  O   UNL     1       5.495  -0.355   8.763  1.00  0.00    -0.401 OA
HETATM   25  H   UNL     1       5.473  -1.194   8.277  1.00  0.00     0.209 HD
ENDBRANCH  23  24
ENDBRANCH  22  23
ENDBRANCH  21  22
ENDBRANCH  19  21
ENDBRANCH   6  19
TORSDOF 7
ENDMDL
