REMARK  5 active torsions:
REMARK  status: ('A' for Active; 'I' for Inactive)
REMARK       I    between atoms: C_2  and  N_4 
REMARK    1  A    between atoms: N_4  and  C_5 
REMARK    2  A    between atoms: C_8  and  N_9 
REMARK       I    between atoms: N_9  and  C_10 
REMARK    3  A    between atoms: C_10  and  C_12 
REMARK    4  A    between atoms: C_20  and  N_21 
REMARK       I    between atoms: N_21  and  C_22 
REMARK    5  A    between atoms: C_22  and  C_24 
ROOT
HETATM    1  C   UNL     1       1.500   0.000   0.000  1.00  0.00     0.061 A 
HETATM    2  C   UNL     1       0.750  -1.299   0.000  1.00  0.00     0.034 A 
HETATM    3  C   UNL     1      -0.750  -1.299   0.000  1.00  0.00     0.032 A 
HETATM    4  C   UNL     1      -1.500   0.000   0.000  1.00  0.00     0.036 A 
HETATM    5  C   UNL     1      -0.750   1.299   0.000  1.00  0.00     0.061 A 
HETATM    6  C   UNL     1       0.750   1.299   0.000  1.00  0.00     0.063 A 
ENDROOT
BRANCH   4   7
HETATM    7  N   UNL     1      -3.000   0.000   0.000  1.00  0.00    -0.334 N 
HETATM    8  C   UNL     1      -3.750   1.299   0.000  1.00  0.00     0.189 C 
HETATM    9  O   UNL     1      -3.000   2.598   0.000  1.00  0.00    -0.171 OA
HETATM   10  H   UNL     1      -3.492  -0.853   0.000  1.00  0.00     0.168 HD
BRANCH   8  11
HETATM   11  C   UNL     1      -5.250   1.299   0.000  1.00  0.00     0.018 A 
HETATM   12  C   UNL     1      -6.000   2.598   0.000  1.00  0.00     0.019 A 
HETATM   13  C   UNL     1      -7.500   2.598   0.000  1.00  0.00     0.043 A 
HETATM   14  C   UNL     1      -8.250   1.299   0.000  1.00  0.00     0.116 A 
HETATM   15  F   UNL     1      -9.750   1.299   0.000  1.00  0.00    -0.206 F 
HETATM   16  C   UNL     1      -7.500   0.000   0.000  1.00  0.00     0.043 A 
HETATM   17  C   UNL     1      -6.000   0.000   0.000  1.00  0.00     0.019 A 
ENDBRANCH   8  11
ENDBRANCH   4   7
BRANCH   6  18
HETATM   18  N   UNL     1       1.500   2.598   0.000  1.00  0.00    -0.332 N 
HETATM   19  C   UNL     1       0.750   3.897   0.000  1.00  0.00     0.189 C 
HETATM   20  O   UNL     1      -0.750   3.897   0.000  1.00  0.00    -0.171 OA
HETATM   21  H   UNL     1       2.484   2.598   0.000  1.00  0.00     0.168 HD
BRANCH  19  22
HETATM   22  C   UNL     1       1.500   5.196   0.000  1.00  0.00     0.018 A 
HETATM   23  C   UNL     1       3.000   5.196   0.000  1.00  0.00     0.019 A 
HETATM   24  C   UNL     1       3.750   6.495   0.000  1.00  0.00     0.043 A 
HETATM   25  C   UNL     1       3.000   7.794   0.000  1.00  0.00     0.116 A 
HETATM   26  F   UNL     1       3.750   9.093   0.000  1.00  0.00    -0.206 F 
HETATM   27  C   UNL     1       1.500   7.794   0.000  1.00  0.00     0.043 A 
HETATM   28  C   UNL     1       0.750   6.495   0.000  1.00  0.00     0.019 A 
ENDBRANCH  19  22
ENDBRANCH   6  18
BRANCH   1  29
HETATM   29  N   UNL     1       3.000   0.000   0.000  1.00  0.00    -0.337 N 
HETATM   30  C   UNL     1       3.750  -1.299   0.000  1.00  0.00     0.151 C 
HETATM   31  C   UNL     1       5.250  -1.299   0.000  1.00  0.00     0.100 C 
HETATM   32  O   UNL     1       3.000  -2.598   0.000  1.00  0.00    -0.177 OA
HETATM   33  H   UNL     1       3.492   0.853   0.000  1.00  0.00     0.168 HD
ENDBRANCH   1  29
TORSDOF 5
