MODEL 1
REMARK VINA RESULT:      -7.2      0.000      0.000
REMARK  3 active torsions:
REMARK  status: ('A' for Active; 'I' for Inactive)
REMARK       I    between atoms: N_1  and  C_2 
REMARK    1  A    between atoms: C_2  and  C_4 
REMARK    2  A    between atoms: C_12  and  C_13 
REMARK    3  A    between atoms: C_13  and  N_14 
ROOT
HETATM    1  C   UNL     1      -5.429  20.112  69.825  1.00  0.00     0.020 A 
HETATM    2  C   UNL     1      -5.720  21.078  68.716  1.00  0.00     0.018 A 
HETATM    3  C   UNL     1      -6.706  20.716  67.644  1.00  0.00     0.033 A 
HETATM    4  C   UNL     1      -7.400  19.386  67.683  1.00  0.00     0.068 A 
HETATM    5  N   UNL     1      -8.385  19.023  66.612  1.00  0.00    -0.355 N 
HETATM    6  C   UNL     1      -9.079  17.694  66.651  1.00  0.00     0.048 A 
HETATM    7  C   UNL     1      -8.788  16.728  67.760  1.00  0.00     0.208 A 
HETATM    8  C   UNL     1      -9.482  15.399  67.799  1.00  0.00     0.020 A 
HETATM    9  C   UNL     1     -10.467  15.036  66.728  1.00  0.00    -0.003 A 
HETATM   10  C   UNL     1     -10.759  16.002  65.618  1.00  0.00     0.126 A 
HETATM   11  F   UNL     1     -11.744  15.639  64.547  1.00  0.00    -0.205 F 
HETATM   12  C   UNL     1     -10.065  17.331  65.580  1.00  0.00     0.071 A 
HETATM   13  C   UNL     1      -7.108  18.420  68.793  1.00  0.00     0.103 A 
HETATM   14  F   UNL     1      -7.803  17.091  68.832  1.00  0.00    -0.354 F 
HETATM   15  C   UNL     1      -6.123  18.783  69.864  1.00  0.00     0.057 A 
HETATM   16  H   UNL     1      -8.576  19.658  65.884  1.00  0.00     0.166 HD
ENDROOT
BRANCH   9  17
HETATM   17  C   UNL     1     -11.162  13.707  66.767  1.00  0.00     0.158 C 
BRANCH  17  18
HETATM   18  N   UNL     1     -11.219  12.855  65.534  1.00  0.00    -0.405 N 
HETATM   19  C   UNL     1     -12.519  12.673  64.808  1.00  0.00     0.141 A 
HETATM   20  C   UNL     1     -12.577  11.821  63.575  1.00  0.00     0.133 A 
HETATM   21  N   UNL     1     -11.334  11.150  63.067  1.00  0.00    -0.418 N 
HETATM   22  C   UNL     1     -10.034  11.332  63.793  1.00  0.00     0.133 A 
HETATM   23  H   UNL     1     -11.373  10.571  62.228  1.00  0.00     0.153 HD
HETATM   24  C   UNL     1      -9.977  12.184  65.026  1.00  0.00     0.137 A 
ENDBRANCH  17  18
ENDBRANCH   9  17
BRANCH   1  25
HETATM   25  C   UNL     1      -4.444  20.475  70.896  1.00  0.00     0.182 C 
HETATM   26  N   UNL     1      -3.604  21.710  70.755  1.00  0.00    -0.377 N 
HETATM   27  H   UNL     1      -3.699  22.283  69.960  1.00  0.00     0.158 HD
HETATM   28  H   UNL     1      -2.957  21.948  71.458  1.00  0.00     0.158 HD
HETATM   29  O   UNL     1      -4.298  19.604  72.108  1.00  0.00    -0.172 OA
ENDBRANCH   1  25
TORSDOF 3
ENDMDL
MODEL 2
REMARK VINA RESULT:      -7.2      3.404      8.928
REMARK  3 active torsions:
REMARK  status: ('A' for Active; 'I' for Inactive)
REMARK       I    between atoms: N_1  and  C_2 
REMARK    1  A    between atoms: C_2  and  C_4 
REMARK    2  A    between atoms: C_12  and  C_13 
REMARK    3  A    between atoms: C_13  and  N_14 
ROOT
HETATM    1  C   UNL     1     -10.049  10.802  65.278  1.00  0.00     0.020 A 
HETATM    2  C   UNL     1     -10.809  11.265  64.070  1.00  0.00     0.018 A 
HETATM    3  C   UNL     1     -11.084  12.727  63.873  1.00  0.00     0.033 A 
HETATM    4  C   UNL     1     -10.598  13.724  64.883  1.00  0.00     0.068 A 
HETATM    5  N   UNL     1     -10.873  15.186  64.685  1.00  0.00    -0.355 N 
HETATM    6  C   UNL     1     -10.388  16.183  65.695  1.00  0.00     0.048 A 
HETATM    7  C   UNL     1      -9.628  15.719  66.902  1.00  0.00     0.208 A 
HETATM    8  C   UNL     1      -9.143  16.717  67.912  1.00  0.00     0.020 A 
HETATM    9  C   UNL     1      -9.418  18.178  67.715  1.00  0.00    -0.003 A 
HETATM   10  C   UNL     1     -10.178  18.642  66.507  1.00  0.00     0.126 A 
HETATM   11  F   UNL     1     -10.452  20.103  66.310  1.00  0.00    -0.205 F 
HETATM   12  C   UNL     1     -10.663  17.644  65.498  1.00  0.00     0.071 A 
HETATM   13  C   UNL     1      -9.838  13.260  66.090  1.00  0.00     0.103 A 
HETATM   14  F   UNL     1      -9.353  14.258  67.100  1.00  0.00    -0.354 F 
HETATM   15  C   UNL     1      -9.564  11.799  66.287  1.00  0.00     0.057 A 
HETATM   16  H   UNL     1     -11.372  15.490  63.893  1.00  0.00     0.166 HD
ENDROOT
BRANCH   9  17
HETATM   17  C   UNL     1      -8.932  19.175  68.724  1.00  0.00     0.158 C 
BRANCH  17  18
HETATM   18  N   UNL     1      -7.609  19.855  68.531  1.00  0.00    -0.405 N 
HETATM   19  C   UNL     1      -6.592  19.841  69.634  1.00  0.00     0.141 A 
HETATM   20  C   UNL     1      -5.268  20.521  69.441  1.00  0.00     0.133 A 
HETATM   21  N   UNL     1      -4.962  21.213  68.146  1.00  0.00    -0.418 N 
HETATM   22  C   UNL     1      -5.979  21.226  67.044  1.00  0.00     0.133 A 
HETATM   23  H   UNL     1      -4.062  21.675  68.015  1.00  0.00     0.153 HD
HETATM   24  C   UNL     1      -7.303  20.547  67.237  1.00  0.00     0.137 A 
ENDBRANCH  17  18
ENDBRANCH   9  17
BRANCH   1  25
HETATM   25  C   UNL     1      -9.774   9.340  65.475  1.00  0.00     0.182 C 
HETATM   26  N   UNL     1      -8.896   8.605  64.507  1.00  0.00    -0.377 N 
HETATM   27  H   UNL     1      -8.500   9.081  63.741  1.00  0.00     0.158 HD
HETATM   28  H   UNL     1      -8.716   7.646  64.636  1.00  0.00     0.158 HD
HETATM   29  O   UNL     1     -10.377   8.614  66.641  1.00  0.00    -0.172 OA
ENDBRANCH   1  25
TORSDOF 3
ENDMDL
MODEL 3
REMARK VINA RESULT:      -7.1      4.554      5.758
REMARK  3 active torsions:
REMARK  status: ('A' for Active; 'I' for Inactive)
REMARK       I    between atoms: N_1  and  C_2 
REMARK    1  A    between atoms: C_2  and  C_4 
REMARK    2  A    between atoms: C_12  and  C_13 
REMARK    3  A    between atoms: C_13  and  N_14 
ROOT
HETATM    1  C   UNL     1      -8.111  18.815  66.761  1.00  0.00     0.020 A 
HETATM    2  C   UNL     1      -8.776  19.604  67.849  1.00  0.00     0.018 A 
HETATM    3  C   UNL     1      -9.691  18.919  68.821  1.00  0.00     0.033 A 
HETATM    4  C   UNL     1      -9.940  17.444  68.704  1.00  0.00     0.068 A 
HETATM    5  N   UNL     1     -10.855  16.759  69.676  1.00  0.00    -0.355 N 
HETATM    6  C   UNL     1     -11.105  15.285  69.559  1.00  0.00     0.048 A 
HETATM    7  C   UNL     1     -10.439  14.495  68.470  1.00  0.00     0.208 A 
HETATM    8  C   UNL     1     -10.689  13.021  68.353  1.00  0.00     0.020 A 
HETATM    9  C   UNL     1     -11.604  12.336  69.325  1.00  0.00    -0.003 A 
HETATM   10  C   UNL     1     -12.269  13.125  70.413  1.00  0.00     0.126 A 
HETATM   11  F   UNL     1     -13.183  12.440  71.385  1.00  0.00    -0.205 F 
HETATM   12  C   UNL     1     -12.019  14.599  70.530  1.00  0.00     0.071 A 
HETATM   13  C   UNL     1      -9.275  16.655  67.616  1.00  0.00     0.103 A 
HETATM   14  F   UNL     1      -9.525  15.181  67.499  1.00  0.00    -0.354 F 
HETATM   15  C   UNL     1      -8.361  17.340  66.644  1.00  0.00     0.057 A 
HETATM   16  H   UNL     1     -11.291  17.277  70.390  1.00  0.00     0.166 HD
ENDROOT
BRANCH   9  17
HETATM   17  C   UNL     1     -11.853  10.861  69.208  1.00  0.00     0.158 C 
BRANCH  17  18
HETATM   18  N   UNL     1     -11.365   9.931  70.278  1.00  0.00    -0.405 N 
HETATM   19  C   UNL     1      -9.902   9.618  70.391  1.00  0.00     0.141 A 
HETATM   20  C   UNL     1      -9.414   8.688  71.461  1.00  0.00     0.133 A 
HETATM   21  N   UNL     1     -10.389   8.070  72.419  1.00  0.00    -0.418 N 
HETATM   22  C   UNL     1     -11.852   8.383  72.307  1.00  0.00     0.133 A 
HETATM   23  H   UNL     1     -10.057   7.437  73.148  1.00  0.00     0.153 HD
HETATM   24  C   UNL     1     -12.340   9.313  71.237  1.00  0.00     0.137 A 
ENDBRANCH  17  18
ENDBRANCH   9  17
BRANCH   1  25
HETATM   25  C   UNL     1      -7.197  19.500  65.789  1.00  0.00     0.182 C 
HETATM   26  N   UNL     1      -6.933  20.971  65.917  1.00  0.00    -0.377 N 
HETATM   27  H   UNL     1      -7.360  21.487  66.639  1.00  0.00     0.158 HD
HETATM   28  H   UNL     1      -6.333  21.421  65.280  1.00  0.00     0.158 HD
HETATM   29  O   UNL     1      -6.546  18.714  64.690  1.00  0.00    -0.172 OA
ENDBRANCH   1  25
TORSDOF 3
ENDMDL
MODEL 4
REMARK VINA RESULT:      -7.1      2.700      3.422
REMARK  3 active torsions:
REMARK  status: ('A' for Active; 'I' for Inactive)
REMARK       I    between atoms: N_1  and  C_2 
REMARK    1  A    between atoms: C_2  and  C_4 
REMARK    2  A    between atoms: C_12  and  C_13 
REMARK    3  A    between atoms: C_13  and  N_14 
ROOT
HETATM    1  C   UNL     1      -6.056  20.021  65.743  1.00  0.00     0.020 A 
HETATM    2  C   UNL     1      -6.506  20.791  66.949  1.00  0.00     0.018 A 
HETATM    3  C   UNL     1      -7.558  20.221  67.853  1.00  0.00     0.033 A 
HETATM    4  C   UNL     1      -8.160  18.880  67.552  1.00  0.00     0.068 A 
HETATM    5  N   UNL     1      -9.211  18.310  68.456  1.00  0.00    -0.355 N 
HETATM    6  C   UNL     1      -9.813  16.969  68.155  1.00  0.00     0.048 A 
HETATM    7  C   UNL     1      -9.363  16.199  66.949  1.00  0.00     0.208 A 
HETATM    8  C   UNL     1      -9.965  14.859  66.647  1.00  0.00     0.020 A 
HETATM    9  C   UNL     1     -11.017  14.288  67.552  1.00  0.00    -0.003 A 
HETATM   10  C   UNL     1     -11.467  15.058  68.758  1.00  0.00     0.126 A 
HETATM   11  F   UNL     1     -12.519  14.488  69.663  1.00  0.00    -0.205 F 
HETATM   12  C   UNL     1     -10.865  16.399  69.060  1.00  0.00     0.071 A 
HETATM   13  C   UNL     1      -7.710  18.110  66.346  1.00  0.00     0.103 A 
HETATM   14  F   UNL     1      -8.312  16.770  66.044  1.00  0.00    -0.354 F 
HETATM   15  C   UNL     1      -6.658  18.681  65.441  1.00  0.00     0.057 A 
HETATM   16  H   UNL     1      -9.507  18.816  69.248  1.00  0.00     0.166 HD
ENDROOT
BRANCH   9  17
HETATM   17  C   UNL     1     -11.619  12.948  67.250  1.00  0.00     0.158 C 
BRANCH  17  18
HETATM   18  N   UNL     1     -11.503  12.367  65.873  1.00  0.00    -0.405 N 
HETATM   19  C   UNL     1     -10.413  11.384  65.563  1.00  0.00     0.141 A 
HETATM   20  C   UNL     1     -10.297  10.803  64.185  1.00  0.00     0.133 A 
HETATM   21  N   UNL     1     -11.271  11.204  63.117  1.00  0.00    -0.418 N 
HETATM   22  C   UNL     1     -12.361  12.186  63.427  1.00  0.00     0.133 A 
HETATM   23  H   UNL     1     -11.192  10.808  62.179  1.00  0.00     0.153 HD
HETATM   24  C   UNL     1     -12.477  12.768  64.805  1.00  0.00     0.137 A 
ENDBRANCH  17  18
ENDBRANCH   9  17
BRANCH   1  25
HETATM   25  C   UNL     1      -5.004  20.592  64.838  1.00  0.00     0.182 C 
HETATM   26  N   UNL     1      -5.308  20.823  63.387  1.00  0.00    -0.377 N 
HETATM   27  H   UNL     1      -6.197  20.600  63.028  1.00  0.00     0.158 HD
HETATM   28  H   UNL     1      -4.618  21.197  62.794  1.00  0.00     0.158 HD
HETATM   29  O   UNL     1      -3.649  20.931  65.384  1.00  0.00    -0.172 OA
ENDBRANCH   1  25
TORSDOF 3
ENDMDL
MODEL 5
REMARK VINA RESULT:      -6.9      3.320      9.191
REMARK  3 active torsions:
REMARK  status: ('A' for Active; 'I' for Inactive)
REMARK       I    between atoms: N_1  and  C_2 
REMARK    1  A    between atoms: C_2  and  C_4 
REMARK    2  A    between atoms: C_12  and  C_13 
REMARK    3  A    between atoms: C_13  and  N_14 
ROOT
HETATM    1  C   UNL     1     -11.096  12.384  64.772  1.00  0.00     0.020 A 
HETATM    2  C   UNL     1     -11.766  12.100  66.083  1.00  0.00     0.018 A 
HETATM    3  C   UNL     1     -11.725  13.119  67.183  1.00  0.00     0.033 A 
HETATM    4  C   UNL     1     -11.014  14.422  66.971  1.00  0.00     0.068 A 
HETATM    5  N   UNL     1     -10.973  15.442  68.071  1.00  0.00    -0.355 N 
HETATM    6  C   UNL     1     -10.262  16.745  67.859  1.00  0.00     0.048 A 
HETATM    7  C   UNL     1      -9.592  17.030  66.547  1.00  0.00     0.208 A 
HETATM    8  C   UNL     1      -8.881  18.333  66.335  1.00  0.00     0.020 A 
HETATM    9  C   UNL     1      -8.840  19.353  67.435  1.00  0.00    -0.003 A 
HETATM   10  C   UNL     1      -9.510  19.068  68.747  1.00  0.00     0.126 A 
HETATM   11  F   UNL     1      -9.469  20.088  69.847  1.00  0.00    -0.205 F 
HETATM   12  C   UNL     1     -10.221  17.765  68.959  1.00  0.00     0.071 A 
HETATM   13  C   UNL     1     -10.344  14.707  65.659  1.00  0.00     0.103 A 
HETATM   14  F   UNL     1      -9.633  16.010  65.448  1.00  0.00    -0.354 F 
HETATM   15  C   UNL     1     -10.385  13.688  64.560  1.00  0.00     0.057 A 
HETATM   16  H   UNL     1     -11.413  15.255  68.932  1.00  0.00     0.166 HD
ENDROOT
BRANCH   9  17
HETATM   17  C   UNL     1      -8.129  20.656  67.223  1.00  0.00     0.158 C 
BRANCH  17  18
HETATM   18  N   UNL     1      -6.673  20.780  67.561  1.00  0.00    -0.405 N 
HETATM   19  C   UNL     1      -6.207  20.549  68.967  1.00  0.00     0.141 A 
HETATM   20  C   UNL     1      -4.750  20.673  69.305  1.00  0.00     0.133 A 
HETATM   21  N   UNL     1      -3.760  21.027  68.235  1.00  0.00    -0.418 N 
HETATM   22  C   UNL     1      -4.226  21.257  66.828  1.00  0.00     0.133 A 
HETATM   23  H   UNL     1      -2.769  21.111  68.464  1.00  0.00     0.153 HD
HETATM   24  C   UNL     1      -5.683  21.133  66.491  1.00  0.00     0.137 A 
ENDBRANCH  17  18
ENDBRANCH   9  17
BRANCH   1  25
HETATM   25  C   UNL     1     -11.137  11.365  63.672  1.00  0.00     0.182 C 
HETATM   26  N   UNL     1     -12.346  11.263  62.789  1.00  0.00    -0.377 N 
HETATM   27  H   UNL     1     -13.112  11.864  62.931  1.00  0.00     0.158 HD
HETATM   28  H   UNL     1     -12.373  10.594  62.067  1.00  0.00     0.158 HD
HETATM   29  O   UNL     1      -9.970  10.447  63.455  1.00  0.00    -0.172 OA
ENDBRANCH   1  25
TORSDOF 3
ENDMDL
MODEL 6
REMARK VINA RESULT:      -6.7      3.644      9.242
REMARK  3 active torsions:
REMARK  status: ('A' for Active; 'I' for Inactive)
REMARK       I    between atoms: N_1  and  C_2 
REMARK    1  A    between atoms: C_2  and  C_4 
REMARK    2  A    between atoms: C_12  and  C_13 
REMARK    3  A    between atoms: C_13  and  N_14 
ROOT
HETATM    1  C   UNL     1     -11.568  12.929  64.618  1.00  0.00     0.020 A 
HETATM    2  C   UNL     1     -12.533  13.175  65.740  1.00  0.00     0.018 A 
HETATM    3  C   UNL     1     -12.233  14.223  66.770  1.00  0.00     0.033 A 
HETATM    4  C   UNL     1     -10.969  15.025  66.678  1.00  0.00     0.068 A 
HETATM    5  N   UNL     1     -10.669  16.073  67.708  1.00  0.00    -0.355 N 
HETATM    6  C   UNL     1      -9.404  16.875  67.616  1.00  0.00     0.048 A 
HETATM    7  C   UNL     1      -8.440  16.629  66.494  1.00  0.00     0.208 A 
HETATM    8  C   UNL     1      -7.176  17.431  66.402  1.00  0.00     0.020 A 
HETATM    9  C   UNL     1      -6.876  18.479  67.432  1.00  0.00    -0.003 A 
HETATM   10  C   UNL     1      -7.840  18.725  68.554  1.00  0.00     0.126 A 
HETATM   11  F   UNL     1      -7.540  19.774  69.585  1.00  0.00    -0.205 F 
HETATM   12  C   UNL     1      -9.105  17.924  68.646  1.00  0.00     0.071 A 
HETATM   13  C   UNL     1     -10.004  14.779  65.556  1.00  0.00     0.103 A 
HETATM   14  F   UNL     1      -8.740  15.580  65.464  1.00  0.00    -0.354 F 
HETATM   15  C   UNL     1     -10.304  13.730  64.526  1.00  0.00     0.057 A 
HETATM   16  H   UNL     1     -11.302  16.235  68.445  1.00  0.00     0.166 HD
ENDROOT
BRANCH   9  17
HETATM   17  C   UNL     1      -5.611  19.281  67.340  1.00  0.00     0.158 C 
BRANCH  17  18
HETATM   18  N   UNL     1      -4.497  19.037  68.314  1.00  0.00    -0.405 N 
HETATM   19  C   UNL     1      -3.780  20.197  68.939  1.00  0.00     0.141 A 
HETATM   20  C   UNL     1      -2.665  19.954  69.913  1.00  0.00     0.133 A 
HETATM   21  N   UNL     1      -2.267  18.550  70.261  1.00  0.00    -0.418 N 
HETATM   22  C   UNL     1      -2.983  17.390  69.636  1.00  0.00     0.133 A 
HETATM   23  H   UNL     1      -1.508  18.384  70.923  1.00  0.00     0.153 HD
HETATM   24  C   UNL     1      -4.098  17.634  68.662  1.00  0.00     0.137 A 
ENDBRANCH  17  18
ENDBRANCH   9  17
BRANCH   1  25
HETATM   25  C   UNL     1     -11.868  11.880  63.588  1.00  0.00     0.182 C 
HETATM   26  N   UNL     1     -10.766  11.013  63.058  1.00  0.00    -0.377 N 
HETATM   27  H   UNL     1      -9.845  11.131  63.386  1.00  0.00     0.158 HD
HETATM   28  H   UNL     1     -10.962  10.325  62.382  1.00  0.00     0.158 HD
HETATM   29  O   UNL     1     -13.271  11.700  63.088  1.00  0.00    -0.172 OA
ENDBRANCH   1  25
TORSDOF 3
ENDMDL
MODEL 7
REMARK VINA RESULT:      -6.6      6.719      9.317
REMARK  3 active torsions:
REMARK  status: ('A' for Active; 'I' for Inactive)
REMARK       I    between atoms: N_1  and  C_2 
REMARK    1  A    between atoms: C_2  and  C_4 
REMARK    2  A    between atoms: C_12  and  C_13 
REMARK    3  A    between atoms: C_13  and  N_14 
ROOT
HETATM    1  C   UNL     1     -10.767  14.554  65.545  1.00  0.00     0.020 A 
HETATM    2  C   UNL     1     -10.438  13.563  64.468  1.00  0.00     0.018 A 
HETATM    3  C   UNL     1     -10.326  12.105  64.800  1.00  0.00     0.033 A 
HETATM    4  C   UNL     1     -10.543  11.637  66.208  1.00  0.00     0.068 A 
HETATM    5  N   UNL     1     -10.431  10.178  66.540  1.00  0.00    -0.355 N 
HETATM    6  C   UNL     1     -10.647   9.710  67.948  1.00  0.00     0.048 A 
HETATM    7  C   UNL     1     -10.976  10.701  69.025  1.00  0.00     0.208 A 
HETATM    8  C   UNL     1     -11.193  10.233  70.434  1.00  0.00     0.020 A 
HETATM    9  C   UNL     1     -11.081   8.774  70.765  1.00  0.00    -0.003 A 
HETATM   10  C   UNL     1     -10.752   7.784  69.688  1.00  0.00     0.126 A 
HETATM   11  F   UNL     1     -10.640   6.325  70.019  1.00  0.00    -0.205 F 
HETATM   12  C   UNL     1     -10.535   8.252  68.279  1.00  0.00     0.071 A 
HETATM   13  C   UNL     1     -10.871  12.627  67.285  1.00  0.00     0.103 A 
HETATM   14  F   UNL     1     -11.088  12.160  68.694  1.00  0.00    -0.354 F 
HETATM   15  C   UNL     1     -10.983  14.086  66.954  1.00  0.00     0.057 A 
HETATM   16  H   UNL     1     -10.215   9.528  65.832  1.00  0.00     0.166 HD
ENDROOT
BRANCH   9  17
HETATM   17  C   UNL     1     -11.298   8.306  72.174  1.00  0.00     0.158 C 
BRANCH  17  18
HETATM   18  N   UNL     1     -10.147   7.765  72.969  1.00  0.00    -0.405 N 
HETATM   19  C   UNL     1      -8.762   8.291  72.739  1.00  0.00     0.141 A 
HETATM   20  C   UNL     1      -7.611   7.750  73.534  1.00  0.00     0.133 A 
HETATM   21  N   UNL     1      -7.847   6.682  74.561  1.00  0.00    -0.418 N 
HETATM   22  C   UNL     1      -9.232   6.155  74.792  1.00  0.00     0.133 A 
HETATM   23  H   UNL     1      -7.064   6.313  75.103  1.00  0.00     0.153 HD
HETATM   24  C   UNL     1     -10.382   6.697  73.996  1.00  0.00     0.137 A 
ENDBRANCH  17  18
ENDBRANCH   9  17
BRANCH   1  25
HETATM   25  C   UNL     1     -10.878  16.013  65.214  1.00  0.00     0.182 C 
HETATM   26  N   UNL     1     -10.287  17.039  66.135  1.00  0.00    -0.377 N 
HETATM   27  H   UNL     1      -9.825  16.755  66.957  1.00  0.00     0.158 HD
HETATM   28  H   UNL     1     -10.360  17.995  65.917  1.00  0.00     0.158 HD
HETATM   29  O   UNL     1     -11.582  16.446  63.962  1.00  0.00    -0.172 OA
ENDBRANCH   1  25
TORSDOF 3
ENDMDL
MODEL 8
REMARK VINA RESULT:      -6.6      4.115      8.534
REMARK  3 active torsions:
REMARK  status: ('A' for Active; 'I' for Inactive)
REMARK       I    between atoms: N_1  and  C_2 
REMARK    1  A    between atoms: C_2  and  C_4 
REMARK    2  A    between atoms: C_12  and  C_13 
REMARK    3  A    between atoms: C_13  and  N_14 
ROOT
HETATM    1  C   UNL     1     -11.274  13.926  66.797  1.00  0.00     0.020 A 
HETATM    2  C   UNL     1     -11.850  14.624  67.993  1.00  0.00     0.018 A 
HETATM    3  C   UNL     1     -11.256  15.919  68.463  1.00  0.00     0.033 A 
HETATM    4  C   UNL     1     -10.087  16.515  67.738  1.00  0.00     0.068 A 
HETATM    5  N   UNL     1      -9.493  17.810  68.208  1.00  0.00    -0.355 N 
HETATM    6  C   UNL     1      -8.324  18.406  67.482  1.00  0.00     0.048 A 
HETATM    7  C   UNL     1      -7.748  17.708  66.286  1.00  0.00     0.208 A 
HETATM    8  C   UNL     1      -6.578  18.304  65.560  1.00  0.00     0.020 A 
HETATM    9  C   UNL     1      -5.985  19.599  66.031  1.00  0.00    -0.003 A 
HETATM   10  C   UNL     1      -6.560  20.297  67.227  1.00  0.00     0.126 A 
HETATM   11  F   UNL     1      -5.967  21.592  67.697  1.00  0.00    -0.205 F 
HETATM   12  C   UNL     1      -7.730  19.701  67.953  1.00  0.00     0.071 A 
HETATM   13  C   UNL     1      -9.511  15.817  66.542  1.00  0.00     0.103 A 
HETATM   14  F   UNL     1      -8.341  16.413  65.816  1.00  0.00    -0.354 F 
HETATM   15  C   UNL     1     -10.105  14.522  66.071  1.00  0.00     0.057 A 
HETATM   16  H   UNL     1      -9.871  18.268  68.993  1.00  0.00     0.166 HD
ENDROOT
BRANCH   9  17
HETATM   17  C   UNL     1      -4.815  20.195  65.305  1.00  0.00     0.158 C 
BRANCH  17  18
HETATM   18  N   UNL     1      -4.964  20.638  63.880  1.00  0.00    -0.405 N 
HETATM   19  C   UNL     1      -6.268  21.204  63.402  1.00  0.00     0.141 A 
HETATM   20  C   UNL     1      -6.417  21.647  61.977  1.00  0.00     0.133 A 
HETATM   21  N   UNL     1      -5.261  21.524  61.029  1.00  0.00    -0.418 N 
HETATM   22  C   UNL     1      -3.956  20.959  61.507  1.00  0.00     0.133 A 
HETATM   23  H   UNL     1      -5.361  21.825  60.059  1.00  0.00     0.153 HD
HETATM   24  C   UNL     1      -3.807  20.516  62.932  1.00  0.00     0.137 A 
ENDBRANCH  17  18
ENDBRANCH   9  17
BRANCH   1  25
HETATM   25  C   UNL     1     -11.868  12.631  66.327  1.00  0.00     0.182 C 
HETATM   26  N   UNL     1     -12.435  12.525  64.942  1.00  0.00    -0.377 N 
HETATM   27  H   UNL     1     -12.419  13.306  64.342  1.00  0.00     0.158 HD
HETATM   28  H   UNL     1     -12.825  11.676  64.634  1.00  0.00     0.158 HD
HETATM   29  O   UNL     1     -11.894  11.442  67.241  1.00  0.00    -0.172 OA
ENDBRANCH   1  25
TORSDOF 3
ENDMDL
MODEL 9
REMARK VINA RESULT:      -6.5      1.672      2.338
REMARK  3 active torsions:
REMARK  status: ('A' for Active; 'I' for Inactive)
REMARK       I    between atoms: N_1  and  C_2 
REMARK    1  A    between atoms: C_2  and  C_4 
REMARK    2  A    between atoms: C_12  and  C_13 
REMARK    3  A    between atoms: C_13  and  N_14 
ROOT
HETATM    1  C   UNL     1      -6.923  19.066  68.966  1.00  0.00     0.020 A 
HETATM    2  C   UNL     1      -7.555  20.036  68.013  1.00  0.00     0.018 A 
HETATM    3  C   UNL     1      -8.543  19.552  66.994  1.00  0.00     0.033 A 
HETATM    4  C   UNL     1      -8.901  18.096  66.929  1.00  0.00     0.068 A 
HETATM    5  N   UNL     1      -9.890  17.612  65.911  1.00  0.00    -0.355 N 
HETATM    6  C   UNL     1     -10.247  16.156  65.846  1.00  0.00     0.048 A 
HETATM    7  C   UNL     1      -9.616  15.186  66.800  1.00  0.00     0.208 A 
HETATM    8  C   UNL     1      -9.973  13.730  66.735  1.00  0.00     0.020 A 
HETATM    9  C   UNL     1     -10.962  13.246  65.716  1.00  0.00    -0.003 A 
HETATM   10  C   UNL     1     -11.594  14.216  64.763  1.00  0.00     0.126 A 
HETATM   11  F   UNL     1     -12.582  13.732  63.744  1.00  0.00    -0.205 F 
HETATM   12  C   UNL     1     -11.236  15.672  64.828  1.00  0.00     0.071 A 
HETATM   13  C   UNL     1      -8.269  17.126  67.883  1.00  0.00     0.103 A 
HETATM   14  F   UNL     1      -8.627  15.671  67.818  1.00  0.00    -0.354 F 
HETATM   15  C   UNL     1      -7.280  17.611  68.901  1.00  0.00     0.057 A 
HETATM   16  H   UNL     1     -10.304  18.249  65.285  1.00  0.00     0.166 HD
ENDROOT
BRANCH   9  17
HETATM   17  C   UNL     1     -11.319  11.790  65.651  1.00  0.00     0.158 C 
BRANCH  17  18
HETATM   18  N   UNL     1     -10.484  10.849  64.837  1.00  0.00    -0.405 N 
HETATM   19  C   UNL     1     -10.382  11.029  63.351  1.00  0.00     0.141 A 
HETATM   20  C   UNL     1      -9.547  10.087  62.536  1.00  0.00     0.133 A 
HETATM   21  N   UNL     1      -8.812   8.965  63.207  1.00  0.00    -0.418 N 
HETATM   22  C   UNL     1      -8.913   8.784  64.692  1.00  0.00     0.133 A 
HETATM   23  H   UNL     1      -8.243   8.324  62.653  1.00  0.00     0.153 HD
HETATM   24  C   UNL     1      -9.749   9.726  65.507  1.00  0.00     0.137 A 
ENDBRANCH  17  18
ENDBRANCH   9  17
BRANCH   1  25
HETATM   25  C   UNL     1      -5.934  19.551  69.985  1.00  0.00     0.182 C 
HETATM   26  N   UNL     1      -5.501  20.987  69.985  1.00  0.00    -0.377 N 
HETATM   27  H   UNL     1      -5.865  21.611  69.317  1.00  0.00     0.158 HD
HETATM   28  H   UNL     1      -4.852  21.305  70.653  1.00  0.00     0.158 HD
HETATM   29  O   UNL     1      -5.378  18.599  71.002  1.00  0.00    -0.172 OA
ENDBRANCH   1  25
TORSDOF 3
ENDMDL
