REMARK  4 active torsions:
REMARK  status: ('A' for Active; 'I' for Inactive)
REMARK    1  A    between atoms: C_4  and  N_5 
REMARK    2  A    between atoms: C_7  and  S_8 
REMARK    3  A    between atoms: S_8  and  C_9 
REMARK    4  A    between atoms: C_9  and  C_10 
ROOT
HETATM    1  C   UNL     1       3.000   0.000   0.000  1.00  0.00     0.070 C 
HETATM    2  C   UNL     1       1.500   0.000   0.000  1.00  0.00     0.037 A 
HETATM    3  C   UNL     1       0.750  -1.299   0.000  1.00  0.00     0.076 A 
HETATM    4  C   UNL     1      -0.750  -1.299   0.000  1.00  0.00     0.126 A 
HETATM    5  N   UNL     1      -1.500   0.000   0.000  1.00  0.00    -0.206 NA
HETATM    6  C   UNL     1      -0.750   1.299   0.000  1.00  0.00     0.190 A 
HETATM    7  N   UNL     1       0.750   1.299   0.000  1.00  0.00    -0.228 NA
ENDROOT
BRANCH   6   8
HETATM    8  S   UNL     1      -1.500   2.598   0.000  1.00  0.00    -0.086 SA
BRANCH   8   9
HETATM    9  C   UNL     1      -0.750   3.897   0.000  1.00  0.00     0.121 C 
BRANCH   9  10
HETATM   10  C   UNL     1      -1.500   5.196   0.000  1.00  0.00    -0.048 A 
HETATM   11  C   UNL     1      -0.750   6.495   0.000  1.00  0.00     0.011 A 
HETATM   12  C   UNL     1      -1.500   7.794   0.000  1.00  0.00     0.043 A 
HETATM   13  C   UNL     1      -3.000   7.794   0.000  1.00  0.00     0.116 A 
HETATM   14  F   UNL     1      -3.750   9.093   0.000  1.00  0.00    -0.206 F 
HETATM   15  C   UNL     1      -3.750   6.495   0.000  1.00  0.00     0.043 A 
HETATM   16  C   UNL     1      -3.000   5.196   0.000  1.00  0.00     0.011 A 
ENDBRANCH   9  10
ENDBRANCH   8   9
ENDBRANCH   6   8
BRANCH   4  17
HETATM   17  N   UNL     1      -1.500  -2.598   0.000  1.00  0.00    -0.384 N 
HETATM   18  H   UNL     1      -2.484  -2.598   0.000  1.00  0.00     0.157 HD
HETATM   19  H   UNL     1      -1.008  -3.451   0.000  1.00  0.00     0.157 HD
ENDBRANCH   4  17
TORSDOF 4
