MODEL 1
REMARK VINA RESULT:      -6.9      0.000      0.000
REMARK  6 active torsions:
REMARK  status: ('A' for Active; 'I' for Inactive)
REMARK    1  A    between atoms: O_2  and  C_3 
REMARK    2  A    between atoms: C_6  and  C_7 
REMARK    3  A    between atoms: C_10  and  C_11 
REMARK    4  A    between atoms: C_11  and  C_12 
REMARK    5  A    between atoms: C_12  and  C_13 
REMARK       I    between atoms: C_13  and  N_15 
REMARK    6  A    between atoms: N_15  and  C_16 
ROOT
HETATM    1  C   UNL     1     -10.633  16.484  65.701  1.00  0.00     0.163 A 
HETATM    2  N   UNL     1     -11.279  16.876  64.404  1.00  0.00    -0.129 NA
HETATM    3  N   UNL     1     -12.087  15.709  63.918  1.00  0.00    -0.134 NA
HETATM    4  C   UNL     1     -11.940  14.596  64.913  1.00  0.00     0.130 A 
HETATM    5  N   UNL     1     -11.042  15.074  66.015  1.00  0.00    -0.321 N 
HETATM    6  C   UNL     1     -10.625  14.284  67.219  1.00  0.00     0.159 C 
ENDROOT
BRANCH   4   7
HETATM    7  C   UNL     1     -12.580  13.242  64.822  1.00  0.00     0.089 C 
BRANCH   7   8
HETATM    8  C   UNL     1     -12.186  12.300  63.724  1.00  0.00     0.095 C 
BRANCH   8   9
HETATM    9  C   UNL     1     -10.811  11.701  63.706  1.00  0.00     0.156 C 
HETATM   10  O   UNL     1      -9.881  11.923  64.862  1.00  0.00    -0.177 OA
HETATM   11  N   UNL     1     -10.365  10.881  62.532  1.00  0.00    -0.338 N 
HETATM   12  H   UNL     1     -10.976  10.736  61.773  1.00  0.00     0.168 HD
BRANCH  11  13
HETATM   13  C   UNL     1      -8.990  10.282  62.513  1.00  0.00     0.033 A 
HETATM   14  C   UNL     1      -7.909  10.909  61.685  1.00  0.00     0.029 A 
HETATM   15  C   UNL     1      -6.534  10.311  61.667  1.00  0.00     0.002 A 
HETATM   16  C   UNL     1      -6.240   9.084  62.477  1.00  0.00     0.000 A 
HETATM   17  C   UNL     1      -7.321   8.456  63.307  1.00  0.00     0.002 A 
HETATM   18  C   UNL     1      -8.695   9.055  63.325  1.00  0.00     0.029 A 
ENDBRANCH  11  13
ENDBRANCH   8   9
ENDBRANCH   7   8
ENDBRANCH   4   7
BRANCH   1  19
HETATM   19  C   UNL     1      -9.737  17.348  66.536  1.00  0.00     0.012 A 
HETATM   20  C   UNL     1     -10.329  18.308  67.525  1.00  0.00     0.018 A 
HETATM   21  C   UNL     1      -9.432  19.173  68.360  1.00  0.00     0.037 A 
HETATM   22  C   UNL     1      -7.943  19.078  68.207  1.00  0.00     0.068 A 
HETATM   23  C   UNL     1      -7.351  18.118  67.218  1.00  0.00     0.037 A 
HETATM   24  C   UNL     1      -8.248  17.253  66.383  1.00  0.00     0.018 A 
BRANCH  22  25
HETATM   25  O   UNL     1      -7.046  19.943  69.042  1.00  0.00    -0.356 OA
HETATM   26  C   UNL     1      -5.852  20.605  68.422  1.00  0.00     0.210 C 
ENDBRANCH  22  25
ENDBRANCH   1  19
TORSDOF 6
ENDMDL
MODEL 2
REMARK VINA RESULT:      -6.8      4.704      8.881
REMARK  6 active torsions:
REMARK  status: ('A' for Active; 'I' for Inactive)
REMARK    1  A    between atoms: O_2  and  C_3 
REMARK    2  A    between atoms: C_6  and  C_7 
REMARK    3  A    between atoms: C_10  and  C_11 
REMARK    4  A    between atoms: C_11  and  C_12 
REMARK    5  A    between atoms: C_12  and  C_13 
REMARK       I    between atoms: C_13  and  N_15 
REMARK    6  A    between atoms: N_15  and  C_16 
ROOT
HETATM    1  C   UNL     1     -11.591  11.627  69.226  1.00  0.00     0.163 A 
HETATM    2  N   UNL     1     -11.968  13.042  69.553  1.00  0.00    -0.129 NA
HETATM    3  N   UNL     1     -12.029  13.813  68.269  1.00  0.00    -0.134 NA
HETATM    4  C   UNL     1     -11.690  12.876  67.148  1.00  0.00     0.130 A 
HETATM    5  N   UNL     1     -11.419  11.525  67.739  1.00  0.00    -0.321 N 
HETATM    6  C   UNL     1     -11.042  10.289  66.978  1.00  0.00     0.159 C 
ENDROOT
BRANCH   4   7
HETATM    7  C   UNL     1     -11.631  13.229  65.691  1.00  0.00     0.089 C 
BRANCH   7   8
HETATM    8  C   UNL     1     -10.448  13.971  65.146  1.00  0.00     0.095 C 
BRANCH   8   9
HETATM    9  C   UNL     1     -10.312  15.446  65.386  1.00  0.00     0.156 C 
HETATM   10  O   UNL     1     -10.959  16.421  64.449  1.00  0.00    -0.177 OA
HETATM   11  N   UNL     1      -9.529  15.945  66.565  1.00  0.00    -0.338 N 
HETATM   12  H   UNL     1      -9.104  15.304  67.180  1.00  0.00     0.168 HD
BRANCH  11  13
HETATM   13  C   UNL     1      -9.393  17.419  66.806  1.00  0.00     0.033 A 
HETATM   14  C   UNL     1     -10.498  18.174  67.481  1.00  0.00     0.029 A 
HETATM   15  C   UNL     1     -10.362  19.648  67.722  1.00  0.00     0.002 A 
HETATM   16  C   UNL     1      -9.120  20.367  67.286  1.00  0.00     0.000 A 
HETATM   17  C   UNL     1      -8.014  19.612  66.610  1.00  0.00     0.002 A 
HETATM   18  C   UNL     1      -8.151  18.139  66.370  1.00  0.00     0.029 A 
ENDBRANCH  11  13
ENDBRANCH   8   9
ENDBRANCH   7   8
ENDBRANCH   4   7
BRANCH   1  19
HETATM   19  C   UNL     1     -11.417  10.510  70.212  1.00  0.00     0.012 A 
HETATM   20  C   UNL     1     -10.089   9.824  70.342  1.00  0.00     0.018 A 
HETATM   21  C   UNL     1      -9.914   8.708  71.328  1.00  0.00     0.037 A 
HETATM   22  C   UNL     1     -11.068   8.277  72.185  1.00  0.00     0.068 A 
HETATM   23  C   UNL     1     -12.395   8.963  72.056  1.00  0.00     0.037 A 
HETATM   24  C   UNL     1     -12.570  10.079  71.069  1.00  0.00     0.018 A 
BRANCH  22  25
HETATM   25  O   UNL     1     -10.893   7.160  73.171  1.00  0.00    -0.356 OA
HETATM   26  C   UNL     1      -9.647   7.081  74.002  1.00  0.00     0.210 C 
ENDBRANCH  22  25
ENDBRANCH   1  19
TORSDOF 6
ENDMDL
MODEL 3
REMARK VINA RESULT:      -6.8      3.547      5.235
REMARK  6 active torsions:
REMARK  status: ('A' for Active; 'I' for Inactive)
REMARK    1  A    between atoms: O_2  and  C_3 
REMARK    2  A    between atoms: C_6  and  C_7 
REMARK    3  A    between atoms: C_10  and  C_11 
REMARK    4  A    between atoms: C_11  and  C_12 
REMARK    5  A    between atoms: C_12  and  C_13 
REMARK       I    between atoms: C_13  and  N_15 
REMARK    6  A    between atoms: N_15  and  C_16 
ROOT
HETATM    1  C   UNL     1     -10.489  16.528  65.733  1.00  0.00     0.163 A 
HETATM    2  N   UNL     1     -11.267  16.416  64.455  1.00  0.00    -0.129 NA
HETATM    3  N   UNL     1     -11.934  15.074  64.434  1.00  0.00    -0.134 NA
HETATM    4  C   UNL     1     -11.569  14.354  65.699  1.00  0.00     0.130 A 
HETATM    5  N   UNL     1     -10.676  15.253  66.502  1.00  0.00    -0.321 N 
HETATM    6  C   UNL     1     -10.074  14.934  67.838  1.00  0.00     0.159 C 
ENDROOT
BRANCH   4   7
HETATM    7  C   UNL     1     -12.018  12.978  66.092  1.00  0.00     0.089 C 
BRANCH   7   8
HETATM    8  C   UNL     1     -11.010  11.882  66.268  1.00  0.00     0.095 C 
BRANCH   8   9
HETATM    9  C   UNL     1     -11.135  10.926  67.418  1.00  0.00     0.156 C 
HETATM   10  O   UNL     1     -11.083   9.447  67.172  1.00  0.00    -0.177 OA
HETATM   11  N   UNL     1     -11.311  11.448  68.813  1.00  0.00    -0.338 N 
HETATM   12  H   UNL     1     -11.345  12.419  68.974  1.00  0.00     0.168 HD
BRANCH  11  13
HETATM   13  C   UNL     1     -11.436  10.493  69.962  1.00  0.00     0.033 A 
HETATM   14  C   UNL     1     -12.752  10.328  70.662  1.00  0.00     0.029 A 
HETATM   15  C   UNL     1     -12.876   9.372  71.811  1.00  0.00     0.002 A 
HETATM   16  C   UNL     1     -11.684   8.581  72.260  1.00  0.00     0.000 A 
HETATM   17  C   UNL     1     -10.368   8.745  71.560  1.00  0.00     0.002 A 
HETATM   18  C   UNL     1     -10.244   9.701  70.412  1.00  0.00     0.029 A 
ENDBRANCH  11  13
ENDBRANCH   8   9
ENDBRANCH   7   8
ENDBRANCH   4   7
BRANCH   1  19
HETATM   19  C   UNL     1      -9.669  17.706  66.166  1.00  0.00     0.012 A 
HETATM   20  C   UNL     1      -8.175  17.593  66.241  1.00  0.00     0.018 A 
HETATM   21  C   UNL     1      -7.354  18.772  66.674  1.00  0.00     0.037 A 
HETATM   22  C   UNL     1      -8.028  20.064  67.032  1.00  0.00     0.068 A 
HETATM   23  C   UNL     1      -9.521  20.176  66.957  1.00  0.00     0.037 A 
HETATM   24  C   UNL     1     -10.342  18.998  66.524  1.00  0.00     0.018 A 
BRANCH  22  25
HETATM   25  O   UNL     1      -7.207  21.242  67.465  1.00  0.00    -0.356 OA
HETATM   26  C   UNL     1      -5.855  21.030  68.078  1.00  0.00     0.210 C 
ENDBRANCH  22  25
ENDBRANCH   1  19
TORSDOF 6
ENDMDL
MODEL 4
REMARK VINA RESULT:      -6.5      3.704      6.394
REMARK  6 active torsions:
REMARK  status: ('A' for Active; 'I' for Inactive)
REMARK    1  A    between atoms: O_2  and  C_3 
REMARK    2  A    between atoms: C_6  and  C_7 
REMARK    3  A    between atoms: C_10  and  C_11 
REMARK    4  A    between atoms: C_11  and  C_12 
REMARK    5  A    between atoms: C_12  and  C_13 
REMARK       I    between atoms: C_13  and  N_15 
REMARK    6  A    between atoms: N_15  and  C_16 
ROOT
HETATM    1  C   UNL     1      -8.625  17.516  66.583  1.00  0.00     0.163 A 
HETATM    2  N   UNL     1      -9.807  18.013  65.803  1.00  0.00    -0.129 NA
HETATM    3  N   UNL     1     -10.557  16.820  65.290  1.00  0.00    -0.134 NA
HETATM    4  C   UNL     1      -9.840  15.586  65.752  1.00  0.00     0.130 A 
HETATM    5  N   UNL     1      -8.646  16.016  66.551  1.00  0.00    -0.321 N 
HETATM    6  C   UNL     1      -7.647  15.108  67.203  1.00  0.00     0.159 C 
ENDROOT
BRANCH   4   7
HETATM    7  C   UNL     1     -10.245  14.171  65.465  1.00  0.00     0.089 C 
BRANCH   7   8
HETATM    8  C   UNL     1     -11.285  13.502  66.313  1.00  0.00     0.095 C 
BRANCH   8   9
HETATM    9  C   UNL     1     -11.294  13.719  67.798  1.00  0.00     0.156 C 
HETATM   10  O   UNL     1     -10.213  13.124  68.650  1.00  0.00    -0.177 OA
HETATM   11  N   UNL     1     -12.385  14.532  68.430  1.00  0.00    -0.338 N 
HETATM   12  H   UNL     1     -13.095  14.923  67.870  1.00  0.00     0.168 HD
BRANCH  11  13
HETATM   13  C   UNL     1     -12.395  14.750  69.914  1.00  0.00     0.033 A 
HETATM   14  C   UNL     1     -11.778  15.986  70.496  1.00  0.00     0.029 A 
HETATM   15  C   UNL     1     -11.788  16.203  71.980  1.00  0.00     0.002 A 
HETATM   16  C   UNL     1     -12.416  15.183  72.882  1.00  0.00     0.000 A 
HETATM   17  C   UNL     1     -13.033  13.946  72.301  1.00  0.00     0.002 A 
HETATM   18  C   UNL     1     -13.023  13.729  70.818  1.00  0.00     0.029 A 
ENDBRANCH  11  13
ENDBRANCH   8   9
ENDBRANCH   7   8
ENDBRANCH   4   7
BRANCH   1  19
HETATM   19  C   UNL     1      -7.603  18.370  67.273  1.00  0.00     0.012 A 
HETATM   20  C   UNL     1      -6.294  18.663  66.601  1.00  0.00     0.018 A 
HETATM   21  C   UNL     1      -5.271  19.516  67.291  1.00  0.00     0.037 A 
HETATM   22  C   UNL     1      -5.558  20.077  68.653  1.00  0.00     0.068 A 
HETATM   23  C   UNL     1      -6.867  19.784  69.324  1.00  0.00     0.037 A 
HETATM   24  C   UNL     1      -7.889  18.930  68.634  1.00  0.00     0.018 A 
BRANCH  22  25
HETATM   25  O   UNL     1      -4.535  20.930  69.343  1.00  0.00    -0.356 OA
HETATM   26  C   UNL     1      -3.843  20.423  70.573  1.00  0.00     0.210 C 
ENDBRANCH  22  25
ENDBRANCH   1  19
TORSDOF 6
ENDMDL
MODEL 5
REMARK VINA RESULT:      -6.4      3.791      8.835
REMARK  6 active torsions:
REMARK  status: ('A' for Active; 'I' for Inactive)
REMARK    1  A    between atoms: O_2  and  C_3 
REMARK    2  A    between atoms: C_6  and  C_7 
REMARK    3  A    between atoms: C_10  and  C_11 
REMARK    4  A    between atoms: C_11  and  C_12 
REMARK    5  A    between atoms: C_12  and  C_13 
REMARK       I    between atoms: C_13  and  N_15 
REMARK    6  A    between atoms: N_15  and  C_16 
ROOT
HETATM    1  C   UNL     1     -10.053  17.443  67.465  1.00  0.00     0.163 A 
HETATM    2  N   UNL     1     -10.665  18.812  67.498  1.00  0.00    -0.129 NA
HETATM    3  N   UNL     1      -9.680  19.744  68.140  1.00  0.00    -0.134 NA
HETATM    4  C   UNL     1      -8.460  18.950  68.504  1.00  0.00     0.130 A 
HETATM    5  N   UNL     1      -8.690  17.528  68.087  1.00  0.00    -0.321 N 
HETATM    6  C   UNL     1      -7.727  16.392  68.261  1.00  0.00     0.159 C 
ENDROOT
BRANCH   4   7
HETATM    7  C   UNL     1      -7.226  19.486  69.169  1.00  0.00     0.089 C 
BRANCH   7   8
HETATM    8  C   UNL     1      -5.932  19.539  68.414  1.00  0.00     0.095 C 
BRANCH   8   9
HETATM    9  C   UNL     1      -5.836  20.330  67.143  1.00  0.00     0.156 C 
HETATM   10  O   UNL     1      -6.463  21.689  67.057  1.00  0.00    -0.177 OA
HETATM   11  N   UNL     1      -5.113  19.761  65.958  1.00  0.00    -0.338 N 
HETATM   12  H   UNL     1      -4.702  18.868  66.015  1.00  0.00     0.168 HD
BRANCH  11  13
HETATM   13  C   UNL     1      -5.017  20.551  64.687  1.00  0.00     0.033 A 
HETATM   14  C   UNL     1      -3.771  21.323  64.375  1.00  0.00     0.029 A 
HETATM   15  C   UNL     1      -3.675  22.114  63.104  1.00  0.00     0.002 A 
HETATM   16  C   UNL     1      -4.827  22.132  62.144  1.00  0.00     0.000 A 
HETATM   17  C   UNL     1      -6.075  21.360  62.456  1.00  0.00     0.002 A 
HETATM   18  C   UNL     1      -6.170  20.570  63.726  1.00  0.00     0.029 A 
ENDBRANCH  11  13
ENDBRANCH   8   9
ENDBRANCH   7   8
ENDBRANCH   4   7
BRANCH   1  19
HETATM   19  C   UNL     1     -10.691  16.205  66.908  1.00  0.00     0.012 A 
HETATM   20  C   UNL     1     -10.660  15.945  65.431  1.00  0.00     0.018 A 
HETATM   21  C   UNL     1     -11.299  14.707  64.874  1.00  0.00     0.037 A 
HETATM   22  C   UNL     1     -11.968  13.729  65.794  1.00  0.00     0.068 A 
HETATM   23  C   UNL     1     -11.999  13.989  67.271  1.00  0.00     0.037 A 
HETATM   24  C   UNL     1     -11.361  15.227  67.828  1.00  0.00     0.018 A 
BRANCH  22  25
HETATM   25  O   UNL     1     -12.607  12.491  65.237  1.00  0.00    -0.356 OA
HETATM   26  C   UNL     1     -12.349  12.089  63.815  1.00  0.00     0.210 C 
ENDBRANCH  22  25
ENDBRANCH   1  19
TORSDOF 6
ENDMDL
MODEL 6
REMARK VINA RESULT:      -6.4      1.754      2.297
REMARK  6 active torsions:
REMARK  status: ('A' for Active; 'I' for Inactive)
REMARK    1  A    between atoms: O_2  and  C_3 
REMARK    2  A    between atoms: C_6  and  C_7 
REMARK    3  A    between atoms: C_10  and  C_11 
REMARK    4  A    between atoms: C_11  and  C_12 
REMARK    5  A    between atoms: C_12  and  C_13 
REMARK       I    between atoms: C_13  and  N_15 
REMARK    6  A    between atoms: N_15  and  C_16 
ROOT
HETATM    1  C   UNL     1     -10.491  16.426  65.634  1.00  0.00     0.163 A 
HETATM    2  N   UNL     1     -11.224  16.963  64.440  1.00  0.00    -0.129 NA
HETATM    3  N   UNL     1     -12.073  15.859  63.883  1.00  0.00    -0.134 NA
HETATM    4  C   UNL     1     -11.865  14.640  64.733  1.00  0.00     0.130 A 
HETATM    5  N   UNL     1     -10.887  14.990  65.815  1.00  0.00    -0.321 N 
HETATM    6  C   UNL     1     -10.392  14.068  66.889  1.00  0.00     0.159 C 
ENDROOT
BRANCH   4   7
HETATM    7  C   UNL     1     -12.520  13.305  64.535  1.00  0.00     0.089 C 
BRANCH   7   8
HETATM    8  C   UNL     1     -11.948  12.328  63.551  1.00  0.00     0.095 C 
BRANCH   8   9
HETATM    9  C   UNL     1     -10.659  11.624  63.857  1.00  0.00     0.156 C 
HETATM   10  O   UNL     1      -9.571  11.570  62.826  1.00  0.00    -0.177 OA
HETATM   11  N   UNL     1     -10.459  10.973  65.194  1.00  0.00    -0.338 N 
HETATM   12  H   UNL     1     -11.174  11.008  65.870  1.00  0.00     0.168 HD
BRANCH  11  13
HETATM   13  C   UNL     1      -9.171  10.269  65.500  1.00  0.00     0.033 A 
HETATM   14  C   UNL     1      -8.965   8.852  65.055  1.00  0.00     0.029 A 
HETATM   15  C   UNL     1      -7.677   8.147  65.361  1.00  0.00     0.002 A 
HETATM   16  C   UNL     1      -6.593   8.861  66.113  1.00  0.00     0.000 A 
HETATM   17  C   UNL     1      -6.798  10.279  66.559  1.00  0.00     0.002 A 
HETATM   18  C   UNL     1      -8.086  10.982  66.252  1.00  0.00     0.029 A 
ENDBRANCH  11  13
ENDBRANCH   8   9
ENDBRANCH   7   8
ENDBRANCH   4   7
BRANCH   1  19
HETATM   19  C   UNL     1      -9.530  17.191  66.496  1.00  0.00     0.012 A 
HETATM   20  C   UNL     1      -8.052  17.052  66.277  1.00  0.00     0.018 A 
HETATM   21  C   UNL     1      -7.092  17.816  67.139  1.00  0.00     0.037 A 
HETATM   22  C   UNL     1      -7.608  18.720  68.219  1.00  0.00     0.068 A 
HETATM   23  C   UNL     1      -9.086  18.858  68.438  1.00  0.00     0.037 A 
HETATM   24  C   UNL     1     -10.047  18.094  67.576  1.00  0.00     0.018 A 
BRANCH  22  25
HETATM   25  O   UNL     1      -6.648  19.484  69.081  1.00  0.00    -0.356 OA
HETATM   26  C   UNL     1      -5.756  18.754  70.040  1.00  0.00     0.210 C 
ENDBRANCH  22  25
ENDBRANCH   1  19
TORSDOF 6
ENDMDL
MODEL 7
REMARK VINA RESULT:      -6.3      4.421      5.709
REMARK  6 active torsions:
REMARK  status: ('A' for Active; 'I' for Inactive)
REMARK    1  A    between atoms: O_2  and  C_3 
REMARK    2  A    between atoms: C_6  and  C_7 
REMARK    3  A    between atoms: C_10  and  C_11 
REMARK    4  A    between atoms: C_11  and  C_12 
REMARK    5  A    between atoms: C_12  and  C_13 
REMARK       I    between atoms: C_13  and  N_15 
REMARK    6  A    between atoms: N_15  and  C_16 
ROOT
HETATM    1  C   UNL     1      -9.917  16.788  66.392  1.00  0.00     0.163 A 
HETATM    2  N   UNL     1     -10.349  16.168  65.096  1.00  0.00    -0.129 NA
HETATM    3  N   UNL     1     -11.216  14.986  65.415  1.00  0.00    -0.134 NA
HETATM    4  C   UNL     1     -11.320  14.877  66.907  1.00  0.00     0.130 A 
HETATM    5  N   UNL     1     -10.518  15.990  67.512  1.00  0.00    -0.321 N 
HETATM    6  C   UNL     1     -10.345  16.259  68.977  1.00  0.00     0.159 C 
ENDROOT
BRANCH   4   7
HETATM    7  C   UNL     1     -12.092  13.835  67.664  1.00  0.00     0.089 C 
BRANCH   7   8
HETATM    8  C   UNL     1     -11.487  13.182  68.869  1.00  0.00     0.095 C 
BRANCH   8   9
HETATM    9  C   UNL     1     -11.795  11.747  69.179  1.00  0.00     0.156 C 
HETATM   10  O   UNL     1     -12.206  10.814  68.079  1.00  0.00    -0.177 OA
HETATM   11  N   UNL     1     -11.692  11.245  70.589  1.00  0.00    -0.338 N 
HETATM   12  H   UNL     1     -11.422  11.858  71.311  1.00  0.00     0.168 HD
BRANCH  11  13
HETATM   13  C   UNL     1     -12.000   9.810  70.899  1.00  0.00     0.033 A 
HETATM   14  C   UNL     1     -10.953   8.757  70.696  1.00  0.00     0.029 A 
HETATM   15  C   UNL     1     -11.261   7.322  71.007  1.00  0.00     0.002 A 
HETATM   16  C   UNL     1     -12.618   6.941  71.520  1.00  0.00     0.000 A 
HETATM   17  C   UNL     1     -13.666   7.995  71.723  1.00  0.00     0.002 A 
HETATM   18  C   UNL     1     -13.357   9.429  71.413  1.00  0.00     0.029 A 
ENDBRANCH  11  13
ENDBRANCH   8   9
ENDBRANCH   7   8
ENDBRANCH   4   7
BRANCH   1  19
HETATM   19  C   UNL     1      -9.039  17.995  66.542  1.00  0.00     0.012 A 
HETATM   20  C   UNL     1      -9.612  19.279  67.065  1.00  0.00     0.018 A 
HETATM   21  C   UNL     1      -8.734  20.486  67.215  1.00  0.00     0.037 A 
HETATM   22  C   UNL     1      -7.283  20.409  66.842  1.00  0.00     0.068 A 
HETATM   23  C   UNL     1      -6.710  19.125  66.319  1.00  0.00     0.037 A 
HETATM   24  C   UNL     1      -7.588  17.918  66.169  1.00  0.00     0.018 A 
BRANCH  22  25
HETATM   25  O   UNL     1      -6.405  21.615  66.992  1.00  0.00    -0.356 OA
HETATM   26  C   UNL     1      -4.955  21.450  67.339  1.00  0.00     0.210 C 
ENDBRANCH  22  25
ENDBRANCH   1  19
TORSDOF 6
ENDMDL
MODEL 8
REMARK VINA RESULT:      -6.3      4.769      9.081
REMARK  6 active torsions:
REMARK  status: ('A' for Active; 'I' for Inactive)
REMARK    1  A    between atoms: O_2  and  C_3 
REMARK    2  A    between atoms: C_6  and  C_7 
REMARK    3  A    between atoms: C_10  and  C_11 
REMARK    4  A    between atoms: C_11  and  C_12 
REMARK    5  A    between atoms: C_12  and  C_13 
REMARK       I    between atoms: C_13  and  N_15 
REMARK    6  A    between atoms: N_15  and  C_16 
ROOT
HETATM    1  C   UNL     1     -11.514  11.122  68.681  1.00  0.00     0.163 A 
HETATM    2  N   UNL     1     -11.507  10.689  67.244  1.00  0.00    -0.129 NA
HETATM    3  N   UNL     1     -11.694  11.910  66.393  1.00  0.00    -0.134 NA
HETATM    4  C   UNL     1     -11.816  13.096  67.302  1.00  0.00     0.130 A 
HETATM    5  N   UNL     1     -11.705  12.610  68.717  1.00  0.00    -0.321 N 
HETATM    6  C   UNL     1     -11.773  13.460  69.950  1.00  0.00     0.159 C 
ENDROOT
BRANCH   4   7
HETATM    7  C   UNL     1     -12.015  14.520  66.873  1.00  0.00     0.089 C 
BRANCH   7   8
HETATM    8  C   UNL     1     -10.913  15.250  66.165  1.00  0.00     0.095 C 
BRANCH   8   9
HETATM    9  C   UNL     1     -10.197  16.376  66.851  1.00  0.00     0.156 C 
HETATM   10  O   UNL     1     -10.840  17.077  68.010  1.00  0.00    -0.177 OA
HETATM   11  N   UNL     1      -8.838  16.800  66.378  1.00  0.00    -0.338 N 
HETATM   12  H   UNL     1      -8.416  16.339  65.616  1.00  0.00     0.168 HD
BRANCH  11  13
HETATM   13  C   UNL     1      -8.122  17.925  67.063  1.00  0.00     0.033 A 
HETATM   14  C   UNL     1      -8.172  19.308  66.487  1.00  0.00     0.029 A 
HETATM   15  C   UNL     1      -7.456  20.434  67.173  1.00  0.00     0.002 A 
HETATM   16  C   UNL     1      -6.689  20.175  68.436  1.00  0.00     0.000 A 
HETATM   17  C   UNL     1      -6.638  18.791  69.012  1.00  0.00     0.002 A 
HETATM   18  C   UNL     1      -7.354  17.667  68.327  1.00  0.00     0.029 A 
ENDBRANCH  11  13
ENDBRANCH   8   9
ENDBRANCH   7   8
ENDBRANCH   4   7
BRANCH   1  19
HETATM   19  C   UNL     1     -11.358  10.224  69.873  1.00  0.00     0.012 A 
HETATM   20  C   UNL     1     -10.017   9.637  70.198  1.00  0.00     0.018 A 
HETATM   21  C   UNL     1      -9.860   8.740  71.390  1.00  0.00     0.037 A 
HETATM   22  C   UNL     1     -11.045   8.429  72.256  1.00  0.00     0.068 A 
HETATM   23  C   UNL     1     -12.386   9.017  71.930  1.00  0.00     0.037 A 
HETATM   24  C   UNL     1     -12.543   9.914  70.739  1.00  0.00     0.018 A 
BRANCH  22  25
HETATM   25  O   UNL     1     -10.889   7.532  73.448  1.00  0.00    -0.356 OA
HETATM   26  C   UNL     1     -10.764   6.049  73.259  1.00  0.00     0.210 C 
ENDBRANCH  22  25
ENDBRANCH   1  19
TORSDOF 6
ENDMDL
MODEL 9
REMARK VINA RESULT:      -6.2      4.278      5.384
REMARK  6 active torsions:
REMARK  status: ('A' for Active; 'I' for Inactive)
REMARK    1  A    between atoms: O_2  and  C_3 
REMARK    2  A    between atoms: C_6  and  C_7 
REMARK    3  A    between atoms: C_10  and  C_11 
REMARK    4  A    between atoms: C_11  and  C_12 
REMARK    5  A    between atoms: C_12  and  C_13 
REMARK       I    between atoms: C_13  and  N_15 
REMARK    6  A    between atoms: N_15  and  C_16 
ROOT
HETATM    1  C   UNL     1     -10.461  16.236  67.900  1.00  0.00     0.163 A 
HETATM    2  N   UNL     1     -11.275  15.866  69.105  1.00  0.00    -0.129 NA
HETATM    3  N   UNL     1     -11.909  14.533  68.843  1.00  0.00    -0.134 NA
HETATM    4  C   UNL     1     -11.489  14.079  67.477  1.00  0.00     0.130 A 
HETATM    5  N   UNL     1     -10.593  15.131  66.893  1.00  0.00    -0.321 N 
HETATM    6  C   UNL     1      -9.944  15.087  65.542  1.00  0.00     0.159 C 
ENDROOT
BRANCH   4   7
HETATM    7  C   UNL     1     -11.892  12.796  66.810  1.00  0.00     0.089 C 
BRANCH   7   8
HETATM    8  C   UNL     1     -11.057  11.564  66.988  1.00  0.00     0.095 C 
BRANCH   8   9
HETATM    9  C   UNL     1     -11.285  10.668  68.170  1.00  0.00     0.156 C 
HETATM   10  O   UNL     1     -12.482  10.875  69.048  1.00  0.00    -0.177 OA
HETATM   11  N   UNL     1     -10.314   9.564  68.473  1.00  0.00    -0.338 N 
HETATM   12  H   UNL     1      -9.528   9.429  67.895  1.00  0.00     0.168 HD
BRANCH  11  13
HETATM   13  C   UNL     1     -10.542   8.669  69.654  1.00  0.00     0.033 A 
HETATM   14  C   UNL     1     -10.378   9.204  71.044  1.00  0.00     0.029 A 
HETATM   15  C   UNL     1     -10.605   8.308  72.225  1.00  0.00     0.002 A 
HETATM   16  C   UNL     1     -10.996   6.875  72.015  1.00  0.00     0.000 A 
HETATM   17  C   UNL     1     -11.160   6.339  70.624  1.00  0.00     0.002 A 
HETATM   18  C   UNL     1     -10.933   7.235  69.444  1.00  0.00     0.029 A 
ENDBRANCH  11  13
ENDBRANCH   8   9
ENDBRANCH   7   8
ENDBRANCH   4   7
BRANCH   1  19
HETATM   19  C   UNL     1      -9.656  17.491  67.730  1.00  0.00     0.012 A 
HETATM   20  C   UNL     1      -8.158  17.431  67.768  1.00  0.00     0.018 A 
HETATM   21  C   UNL     1      -7.353  18.686  67.599  1.00  0.00     0.037 A 
HETATM   22  C   UNL     1      -8.047  20.000  67.392  1.00  0.00     0.068 A 
HETATM   23  C   UNL     1      -9.545  20.059  67.355  1.00  0.00     0.037 A 
HETATM   24  C   UNL     1     -10.350  18.804  67.524  1.00  0.00     0.018 A 
BRANCH  22  25
HETATM   25  O   UNL     1      -7.242  21.254  67.223  1.00  0.00    -0.356 OA
HETATM   26  C   UNL     1      -5.806  21.287  67.653  1.00  0.00     0.210 C 
ENDBRANCH  22  25
ENDBRANCH   1  19
TORSDOF 6
ENDMDL
