REMARK  4 active torsions:
REMARK  status: ('A' for Active; 'I' for Inactive)
REMARK    1  A    between atoms: C_2  and  N_4 
REMARK    2  A    between atoms: C_8  and  N_9 
REMARK       I    between atoms: N_9  and  C_10 
REMARK    3  A    between atoms: C_10  and  C_12 
REMARK    4  A    between atoms: C_14  and  C_15 
ROOT
HETATM    1  C   UNL     1       2.005  -4.972   0.000  1.00  0.00     0.133 A 
HETATM    2  C   UNL     1       0.890  -3.968   0.000  1.00  0.00     0.069 A 
HETATM    3  C   UNL     1       1.500  -2.598   0.000  1.00  0.00     0.062 A 
HETATM    4  N   UNL     1       2.992  -2.755   0.000  1.00  0.00    -0.277 N 
HETATM    5  N   UNL     1       3.304  -4.222   0.000  1.00  0.00    -0.170 NA
HETATM    6  H   UNL     1       3.651  -2.023   0.000  1.00  0.00     0.189 HD
ENDROOT
BRANCH   1   7
HETATM    7  C   UNL     1       1.848  -6.464   0.000  1.00  0.00     0.211 C 
HETATM    8  N   UNL     1       0.477  -7.074   0.000  1.00  0.00    -0.318 N 
HETATM    9  H   UNL     1      -0.319  -6.495   0.000  1.00  0.00     0.169 HD
HETATM   10  O   UNL     1       3.061  -7.346   0.000  1.00  0.00    -0.169 OA
BRANCH   8  11
HETATM   11  C   UNL     1       0.321  -8.566   0.000  1.00  0.00     0.127 A 
HETATM   12  N   UNL     1      -0.978  -9.316   0.000  1.00  0.00    -0.250 N 
HETATM   13  N   UNL     1      -0.666 -10.783   0.000  1.00  0.00    -0.183 NA
HETATM   14  C   UNL     1       0.825 -10.940   0.000  1.00  0.00     0.142 A 
HETATM   15  C   UNL     1       1.435  -9.569   0.000  1.00  0.00     0.071 A 
BRANCH  12  16
HETATM   16  C   UNL     1      -2.349  -8.706   0.000  1.00  0.00     0.104 C 
HETATM   17  C   UNL     1      -3.562  -9.587   0.000  1.00  0.00     0.034 C 
HETATM   18  C   UNL     1      -2.505  -7.214   0.000  1.00  0.00     0.034 C 
ENDBRANCH  12  16
ENDBRANCH   8  11
ENDBRANCH   1   7
BRANCH   3  19
HETATM   19  C   UNL     1       0.750  -1.299   0.000  1.00  0.00    -0.008 A 
HETATM   20  C   UNL     1       1.500   0.000   0.000  1.00  0.00     0.014 A 
HETATM   21  C   UNL     1       0.750   1.299   0.000  1.00  0.00     0.001 A 
HETATM   22  C   UNL     1      -0.750   1.299   0.000  1.00  0.00     0.000 A 
HETATM   23  C   UNL     1      -1.500   0.000   0.000  1.00  0.00     0.001 A 
HETATM   24  C   UNL     1      -0.750  -1.299   0.000  1.00  0.00     0.014 A 
ENDBRANCH   3  19
TORSDOF 4
