REMARK  4 active torsions:
REMARK  status: ('A' for Active; 'I' for Inactive)
REMARK    1  A    between atoms: C_2  and  N_3 
REMARK       I    between atoms: N_3  and  C_4 
REMARK    2  A    between atoms: N_3  and  C_13 
REMARK    3  A    between atoms: C_4  and  C_6 
REMARK    4  A    between atoms: C_6  and  N_7 
ROOT
HETATM    1  N   UNL     1       1.500  -5.196   0.000  1.00  0.00    -0.328 N 
HETATM    2  C   UNL     1       3.000  -5.196   0.000  1.00  0.00     0.175 C 
HETATM    3  O   UNL     1       3.750  -3.897   0.000  1.00  0.00    -0.175 OA
ENDROOT
BRANCH   1   4
HETATM    4  C   UNL     1       0.750  -6.495   0.000  1.00  0.00     0.126 C 
HETATM    5  C   UNL     1       1.500  -7.794   0.000  1.00  0.00     0.031 C 
ENDBRANCH   1   4
BRANCH   1   6
HETATM    6  C   UNL     1       0.750  -3.897   0.000  1.00  0.00     0.036 A 
HETATM    7  C   UNL     1      -0.750  -3.897   0.000  1.00  0.00     0.030 A 
HETATM    8  C   UNL     1      -1.500  -2.598   0.000  1.00  0.00     0.010 A 
HETATM    9  C   UNL     1      -0.750  -1.299   0.000  1.00  0.00    -0.052 A 
HETATM   10  C   UNL     1       0.750  -1.299   0.000  1.00  0.00    -0.050 A 
HETATM   11  C   UNL     1      -1.500   0.000   0.000  1.00  0.00     0.039 A 
HETATM   12  C   UNL     1       1.500  -2.598   0.000  1.00  0.00     0.037 A 
HETATM   13  C   UNL     1       1.500   0.000   0.000  1.00  0.00     0.039 A 
HETATM   14  C   UNL     1       0.750   1.299   0.000  1.00  0.00     0.005 A 
HETATM   15  C   UNL     1      -0.750   1.299   0.000  1.00  0.00     0.005 A 
ENDBRANCH   1   6
BRANCH   2  16
HETATM   16  C   UNL     1       3.750  -6.495   0.000  1.00  0.00     0.200 C 
BRANCH  16  17
HETATM   17  N   UNL     1       5.250  -6.495   0.000  1.00  0.00    -0.401 N 
HETATM   18  C   UNL     1       6.000  -7.794   0.000  1.00  0.00     0.143 A 
HETATM   19  C   UNL     1       7.500  -7.794   0.000  1.00  0.00     0.187 A 
HETATM   20  O   UNL     1       8.250  -6.495   0.000  1.00  0.00    -0.388 OA
HETATM   21  C   UNL     1       7.500  -5.196   0.000  1.00  0.00     0.187 A 
HETATM   22  C   UNL     1       6.000  -5.196   0.000  1.00  0.00     0.143 A 
ENDBRANCH  16  17
ENDBRANCH   2  16
TORSDOF 4
