MODEL 1
REMARK VINA RESULT:      -7.6      0.000      0.000
REMARK  4 active torsions:
REMARK  status: ('A' for Active; 'I' for Inactive)
REMARK       I    between atoms: N_2  and  C_4 
REMARK    1  A    between atoms: C_4  and  C_6 
REMARK       I    between atoms: N_10  and  C_11 
REMARK    2  A    between atoms: C_11  and  C_13 
REMARK    3  A    between atoms: C_13  and  C_14 
REMARK    4  A    between atoms: N_16  and  C_17 
ROOT
HETATM    1  C   UNL     1     -10.040  11.798  65.437  1.00  0.00     0.081 A 
HETATM    2  C   UNL     1     -10.883  11.127  64.393  1.00  0.00     0.018 A 
HETATM    3  C   UNL     1     -11.747  11.949  63.484  1.00  0.00     0.021 A 
HETATM    4  C   UNL     1     -11.768  13.443  63.619  1.00  0.00     0.124 A 
HETATM    5  N   UNL     1     -10.926  14.114  64.663  1.00  0.00    -0.362 N 
HETATM    6  C   UNL     1     -10.947  15.608  64.797  1.00  0.00     0.159 C 
HETATM    7  O   UNL     1     -11.811  16.431  63.888  1.00  0.00    -0.177 OA
HETATM    8  C   UNL     1     -10.062  13.292  65.572  1.00  0.00     0.137 A 
ENDROOT
BRANCH   6   9
HETATM    9  C   UNL     1     -10.105  16.279  65.841  1.00  0.00     0.149 C 
BRANCH   9  10
HETATM   10  C   UNL     1     -10.552  16.289  67.273  1.00  0.00     0.077 A 
HETATM   11  C   UNL     1     -11.360  15.222  67.952  1.00  0.00     0.143 A 
HETATM   12  N   UNL     1     -11.577  15.641  69.376  1.00  0.00    -0.247 N 
HETATM   13  N   UNL     1     -10.903  16.966  69.577  1.00  0.00     0.009 NA
HETATM   14  N   UNL     1     -10.270  17.366  68.277  1.00  0.00    -0.162 NA
BRANCH  12  15
HETATM   15  C   UNL     1     -12.334  14.870  70.416  1.00  0.00     0.054 A 
HETATM   16  C   UNL     1     -13.231  15.590  71.378  1.00  0.00     0.031 A 
HETATM   17  C   UNL     1     -13.989  14.820  72.418  1.00  0.00     0.002 A 
HETATM   18  C   UNL     1     -13.849  13.328  72.496  1.00  0.00     0.000 A 
HETATM   19  C   UNL     1     -12.952  12.608  71.534  1.00  0.00     0.002 A 
HETATM   20  C   UNL     1     -12.195  13.379  70.494  1.00  0.00     0.031 A 
ENDBRANCH  12  15
ENDBRANCH   9  10
ENDBRANCH   6   9
BRANCH   1  21
HETATM   21  C   UNL     1      -9.177  10.975  66.347  1.00  0.00     0.158 C 
HETATM   22  N   UNL     1      -9.752  10.393  67.604  1.00  0.00    -0.371 N 
HETATM   23  C   UNL     1      -8.888   9.571  68.513  1.00  0.00     0.150 C 
HETATM   24  C   UNL     1     -11.191  10.634  67.952  1.00  0.00     0.149 C 
HETATM   25  O   UNL     1      -7.737  10.734  65.999  1.00  0.00    -0.177 OA
ENDBRANCH   1  21
TORSDOF 4
ENDMDL
MODEL 2
REMARK VINA RESULT:      -6.8      2.472      4.349
REMARK  4 active torsions:
REMARK  status: ('A' for Active; 'I' for Inactive)
REMARK       I    between atoms: N_2  and  C_4 
REMARK    1  A    between atoms: C_4  and  C_6 
REMARK       I    between atoms: N_10  and  C_11 
REMARK    2  A    between atoms: C_11  and  C_13 
REMARK    3  A    between atoms: C_13  and  C_14 
REMARK    4  A    between atoms: N_16  and  C_17 
ROOT
HETATM    1  C   UNL     1      -9.366  10.174  65.610  1.00  0.00     0.081 A 
HETATM    2  C   UNL     1      -9.340   9.967  64.125  1.00  0.00     0.018 A 
HETATM    3  C   UNL     1     -10.231  10.784  63.238  1.00  0.00     0.021 A 
HETATM    4  C   UNL     1     -11.149  11.809  63.836  1.00  0.00     0.124 A 
HETATM    5  N   UNL     1     -11.175  12.016  65.322  1.00  0.00    -0.362 N 
HETATM    6  C   UNL     1     -12.092  13.041  65.920  1.00  0.00     0.159 C 
HETATM    7  O   UNL     1     -12.984  13.858  65.033  1.00  0.00    -0.177 OA
HETATM    8  C   UNL     1     -10.283  11.199  66.209  1.00  0.00     0.137 A 
ENDROOT
BRANCH   6   9
HETATM    9  C   UNL     1     -12.118  13.248  67.405  1.00  0.00     0.149 C 
BRANCH   9  10
HETATM   10  C   UNL     1     -11.694  14.564  67.986  1.00  0.00     0.077 A 
HETATM   11  C   UNL     1     -10.808  15.577  67.322  1.00  0.00     0.143 A 
HETATM   12  N   UNL     1     -10.648  16.738  68.258  1.00  0.00    -0.247 N 
HETATM   13  N   UNL     1     -11.433  16.442  69.501  1.00  0.00     0.009 NA
HETATM   14  N   UNL     1     -12.080  15.099  69.333  1.00  0.00    -0.162 NA
BRANCH  12  15
HETATM   15  C   UNL     1      -9.842  17.976  67.998  1.00  0.00     0.054 A 
HETATM   16  C   UNL     1     -10.510  19.205  67.456  1.00  0.00     0.031 A 
HETATM   17  C   UNL     1      -9.705  20.443  67.195  1.00  0.00     0.002 A 
HETATM   18  C   UNL     1      -8.231  20.452  67.476  1.00  0.00     0.000 A 
HETATM   19  C   UNL     1      -7.564  19.224  68.018  1.00  0.00     0.002 A 
HETATM   20  C   UNL     1      -8.369  17.986  68.279  1.00  0.00     0.031 A 
ENDBRANCH  12  15
ENDBRANCH   9  10
ENDBRANCH   6   9
BRANCH   1  21
HETATM   21  C   UNL     1      -8.474   9.357  66.498  1.00  0.00     0.158 C 
HETATM   22  N   UNL     1      -8.991   8.095  67.123  1.00  0.00    -0.371 N 
HETATM   23  C   UNL     1      -8.099   7.278  68.010  1.00  0.00     0.150 C 
HETATM   24  C   UNL     1     -10.399   7.651  66.861  1.00  0.00     0.149 C 
HETATM   25  O   UNL     1      -7.065   9.801  66.759  1.00  0.00    -0.177 OA
ENDBRANCH   1  21
TORSDOF 4
ENDMDL
MODEL 3
REMARK VINA RESULT:      -6.6      2.223      5.275
REMARK  4 active torsions:
REMARK  status: ('A' for Active; 'I' for Inactive)
REMARK       I    between atoms: N_2  and  C_4 
REMARK    1  A    between atoms: C_4  and  C_6 
REMARK       I    between atoms: N_10  and  C_11 
REMARK    2  A    between atoms: C_11  and  C_13 
REMARK    3  A    between atoms: C_13  and  C_14 
REMARK    4  A    between atoms: N_16  and  C_17 
ROOT
HETATM    1  C   UNL     1     -10.895  14.100  65.329  1.00  0.00     0.081 A 
HETATM    2  C   UNL     1     -11.971  13.987  64.290  1.00  0.00     0.018 A 
HETATM    3  C   UNL     1     -12.108  12.728  63.486  1.00  0.00     0.021 A 
HETATM    4  C   UNL     1     -11.171  11.582  63.722  1.00  0.00     0.124 A 
HETATM    5  N   UNL     1     -10.095  11.694  64.761  1.00  0.00    -0.362 N 
HETATM    6  C   UNL     1      -9.157  10.547  64.996  1.00  0.00     0.159 C 
HETATM    7  O   UNL     1      -9.295   9.288  64.193  1.00  0.00    -0.177 OA
HETATM    8  C   UNL     1      -9.957  12.953  65.564  1.00  0.00     0.137 A 
ENDROOT
BRANCH   6   9
HETATM    9  C   UNL     1      -8.081  10.660  66.035  1.00  0.00     0.149 C 
BRANCH   9  10
HETATM   10  C   UNL     1      -8.397  10.384  67.475  1.00  0.00     0.077 A 
HETATM   11  C   UNL     1      -9.762  10.131  68.046  1.00  0.00     0.143 A 
HETATM   12  N   UNL     1      -9.613   9.903  69.521  1.00  0.00    -0.247 N 
HETATM   13  N   UNL     1      -8.156  10.015  69.862  1.00  0.00     0.009 NA
HETATM   14  N   UNL     1      -7.405  10.312  68.598  1.00  0.00    -0.162 NA
BRANCH  12  15
HETATM   15  C   UNL     1     -10.724   9.614  70.485  1.00  0.00     0.054 A 
HETATM   16  C   UNL     1     -10.644   8.417  71.386  1.00  0.00     0.031 A 
HETATM   17  C   UNL     1     -11.756   8.128  72.350  1.00  0.00     0.002 A 
HETATM   18  C   UNL     1     -12.948   9.036  72.414  1.00  0.00     0.000 A 
HETATM   19  C   UNL     1     -13.029  10.233  71.513  1.00  0.00     0.002 A 
HETATM   20  C   UNL     1     -11.917  10.522  70.549  1.00  0.00     0.031 A 
ENDBRANCH  12  15
ENDBRANCH   9  10
ENDBRANCH   6   9
BRANCH   1  21
HETATM   21  C   UNL     1     -10.757  15.359  66.132  1.00  0.00     0.158 C 
HETATM   22  N   UNL     1     -11.208  15.389  67.562  1.00  0.00    -0.371 N 
HETATM   23  C   UNL     1     -11.070  16.648  68.366  1.00  0.00     0.150 C 
HETATM   24  C   UNL     1     -11.797  14.160  68.189  1.00  0.00     0.149 C 
HETATM   25  O   UNL     1     -10.168  16.588  65.506  1.00  0.00    -0.177 OA
ENDBRANCH   1  21
TORSDOF 4
ENDMDL
MODEL 4
REMARK VINA RESULT:      -6.6      3.461      6.275
REMARK  4 active torsions:
REMARK  status: ('A' for Active; 'I' for Inactive)
REMARK       I    between atoms: N_2  and  C_4 
REMARK    1  A    between atoms: C_4  and  C_6 
REMARK       I    between atoms: N_10  and  C_11 
REMARK    2  A    between atoms: C_11  and  C_13 
REMARK    3  A    between atoms: C_13  and  C_14 
REMARK    4  A    between atoms: N_16  and  C_17 
ROOT
HETATM    1  C   UNL     1     -11.500   8.292  70.662  1.00  0.00     0.081 A 
HETATM    2  C   UNL     1     -12.497   8.154  71.775  1.00  0.00     0.018 A 
HETATM    3  C   UNL     1     -13.261   9.354  72.249  1.00  0.00     0.021 A 
HETATM    4  C   UNL     1     -13.030  10.692  71.611  1.00  0.00     0.124 A 
HETATM    5  N   UNL     1     -12.033  10.829  70.498  1.00  0.00    -0.362 N 
HETATM    6  C   UNL     1     -11.801  12.167  69.860  1.00  0.00     0.159 C 
HETATM    7  O   UNL     1     -12.566  13.367  70.335  1.00  0.00    -0.177 OA
HETATM    8  C   UNL     1     -11.268   9.629  70.024  1.00  0.00     0.137 A 
ENDROOT
BRANCH   6   9
HETATM    9  C   UNL     1     -10.805  12.305  68.748  1.00  0.00     0.149 C 
BRANCH   9  10
HETATM   10  C   UNL     1     -10.771  13.556  67.921  1.00  0.00     0.077 A 
HETATM   11  C   UNL     1     -10.478  14.938  68.425  1.00  0.00     0.143 A 
HETATM   12  N   UNL     1     -10.551  15.881  67.261  1.00  0.00    -0.247 N 
HETATM   13  N   UNL     1     -10.890  15.082  66.038  1.00  0.00     0.009 NA
HETATM   14  N   UNL     1     -11.026  13.644  66.446  1.00  0.00    -0.162 NA
BRANCH  12  15
HETATM   15  C   UNL     1     -10.325  17.363  67.311  1.00  0.00     0.054 A 
HETATM   16  C   UNL     1     -10.478  18.187  66.067  1.00  0.00     0.031 A 
HETATM   17  C   UNL     1     -10.252  19.669  66.117  1.00  0.00     0.002 A 
HETATM   18  C   UNL     1      -9.872  20.327  67.411  1.00  0.00     0.000 A 
HETATM   19  C   UNL     1      -9.719  19.502  68.654  1.00  0.00     0.002 A 
HETATM   20  C   UNL     1      -9.945  18.021  68.604  1.00  0.00     0.031 A 
ENDBRANCH  12  15
ENDBRANCH   9  10
ENDBRANCH   6   9
BRANCH   1  21
HETATM   21  C   UNL     1     -10.735   7.092  70.187  1.00  0.00     0.158 C 
HETATM   22  N   UNL     1      -9.394   6.776  70.779  1.00  0.00    -0.371 N 
HETATM   23  C   UNL     1      -8.629   5.576  70.304  1.00  0.00     0.150 C 
HETATM   24  C   UNL     1      -8.816   7.659  71.844  1.00  0.00     0.149 C 
HETATM   25  O   UNL     1     -11.312   6.208  69.122  1.00  0.00    -0.177 OA
ENDBRANCH   1  21
TORSDOF 4
ENDMDL
MODEL 5
REMARK VINA RESULT:      -6.6      4.324      7.274
REMARK  4 active torsions:
REMARK  status: ('A' for Active; 'I' for Inactive)
REMARK       I    between atoms: N_2  and  C_4 
REMARK    1  A    between atoms: C_4  and  C_6 
REMARK       I    between atoms: N_10  and  C_11 
REMARK    2  A    between atoms: C_11  and  C_13 
REMARK    3  A    between atoms: C_13  and  C_14 
REMARK    4  A    between atoms: N_16  and  C_17 
ROOT
HETATM    1  C   UNL     1      -6.028  18.923  68.786  1.00  0.00     0.081 A 
HETATM    2  C   UNL     1      -5.733  20.100  67.904  1.00  0.00     0.018 A 
HETATM    3  C   UNL     1      -6.839  20.750  67.126  1.00  0.00     0.021 A 
HETATM    4  C   UNL     1      -8.239  20.223  67.231  1.00  0.00     0.124 A 
HETATM    5  N   UNL     1      -8.534  19.047  68.113  1.00  0.00    -0.362 N 
HETATM    6  C   UNL     1      -9.935  18.520  68.218  1.00  0.00     0.159 C 
HETATM    7  O   UNL     1     -11.041  19.170  67.440  1.00  0.00    -0.177 OA
HETATM    8  C   UNL     1      -7.428  18.397  68.891  1.00  0.00     0.137 A 
ENDROOT
BRANCH   6   9
HETATM    9  C   UNL     1     -10.229  17.343  69.100  1.00  0.00     0.149 C 
BRANCH   9  10
HETATM   10  C   UNL     1     -10.803  16.089  68.511  1.00  0.00     0.077 A 
HETATM   11  C   UNL     1     -10.442  15.495  67.181  1.00  0.00     0.143 A 
HETATM   12  N   UNL     1     -11.254  14.247  66.996  1.00  0.00    -0.247 N 
HETATM   13  N   UNL     1     -12.115  14.070  68.211  1.00  0.00     0.009 NA
HETATM   14  N   UNL     1     -11.836  15.208  69.147  1.00  0.00    -0.162 NA
BRANCH  12  15
HETATM   15  C   UNL     1     -11.211  13.336  65.805  1.00  0.00     0.054 A 
HETATM   16  C   UNL     1     -12.101  13.600  64.627  1.00  0.00     0.031 A 
HETATM   17  C   UNL     1     -12.059  12.689  63.436  1.00  0.00     0.002 A 
HETATM   18  C   UNL     1     -11.125  11.514  63.423  1.00  0.00     0.000 A 
HETATM   19  C   UNL     1     -10.235  11.251  64.600  1.00  0.00     0.002 A 
HETATM   20  C   UNL     1     -10.278  12.162  65.791  1.00  0.00     0.031 A 
ENDBRANCH  12  15
ENDBRANCH   9  10
ENDBRANCH   6   9
BRANCH   1  21
HETATM   21  C   UNL     1      -4.922  18.273  69.564  1.00  0.00     0.158 C 
HETATM   22  N   UNL     1      -4.118  17.169  68.944  1.00  0.00    -0.371 N 
HETATM   23  C   UNL     1      -3.012  16.519  69.721  1.00  0.00     0.150 C 
HETATM   24  C   UNL     1      -4.419  16.715  67.546  1.00  0.00     0.149 C 
HETATM   25  O   UNL     1      -4.620  18.727  70.961  1.00  0.00    -0.177 OA
ENDBRANCH   1  21
TORSDOF 4
ENDMDL
MODEL 6
REMARK VINA RESULT:      -6.4      4.585      7.403
REMARK  4 active torsions:
REMARK  status: ('A' for Active; 'I' for Inactive)
REMARK       I    between atoms: N_2  and  C_4 
REMARK    1  A    between atoms: C_4  and  C_6 
REMARK       I    between atoms: N_10  and  C_11 
REMARK    2  A    between atoms: C_11  and  C_13 
REMARK    3  A    between atoms: C_13  and  C_14 
REMARK    4  A    between atoms: N_16  and  C_17 
ROOT
HETATM    1  C   UNL     1      -6.200  20.370  65.176  1.00  0.00     0.081 A 
HETATM    2  C   UNL     1      -5.196  20.858  66.177  1.00  0.00     0.018 A 
HETATM    3  C   UNL     1      -5.544  20.886  67.636  1.00  0.00     0.021 A 
HETATM    4  C   UNL     1      -6.896  20.426  68.094  1.00  0.00     0.124 A 
HETATM    5  N   UNL     1      -7.900  19.937  67.092  1.00  0.00    -0.362 N 
HETATM    6  C   UNL     1      -9.252  19.476  67.550  1.00  0.00     0.159 C 
HETATM    7  O   UNL     1      -9.600  19.504  69.008  1.00  0.00    -0.177 OA
HETATM    8  C   UNL     1      -7.552  19.909  65.633  1.00  0.00     0.137 A 
ENDROOT
BRANCH   6   9
HETATM    9  C   UNL     1     -10.257  18.988  66.548  1.00  0.00     0.149 C 
BRANCH   9  10
HETATM   10  C   UNL     1     -10.545  17.521  66.430  1.00  0.00     0.077 A 
HETATM   11  C   UNL     1     -10.760  16.569  67.569  1.00  0.00     0.143 A 
HETATM   12  N   UNL     1     -11.016  15.208  66.994  1.00  0.00    -0.247 N 
HETATM   13  N   UNL     1     -10.959  15.318  65.500  1.00  0.00     0.009 NA
HETATM   14  N   UNL     1     -10.668  16.747  65.151  1.00  0.00    -0.162 NA
BRANCH  12  15
HETATM   15  C   UNL     1     -11.282  13.956  67.777  1.00  0.00     0.054 A 
HETATM   16  C   UNL     1     -11.755  14.046  69.198  1.00  0.00     0.031 A 
HETATM   17  C   UNL     1     -12.021  12.795  69.980  1.00  0.00     0.002 A 
HETATM   18  C   UNL     1     -11.815  11.452  69.342  1.00  0.00     0.000 A 
HETATM   19  C   UNL     1     -11.343  11.363  67.922  1.00  0.00     0.002 A 
HETATM   20  C   UNL     1     -11.076  12.614  67.139  1.00  0.00     0.031 A 
ENDBRANCH  12  15
ENDBRANCH   9  10
ENDBRANCH   6   9
BRANCH   1  21
HETATM   21  C   UNL     1      -5.852  20.342  63.717  1.00  0.00     0.158 C 
HETATM   22  N   UNL     1      -4.938  19.278  63.184  1.00  0.00    -0.371 N 
HETATM   23  C   UNL     1      -4.590  19.250  61.725  1.00  0.00     0.150 C 
HETATM   24  C   UNL     1      -4.373  18.243  64.110  1.00  0.00     0.149 C 
HETATM   25  O   UNL     1      -6.418  21.378  62.791  1.00  0.00    -0.177 OA
ENDBRANCH   1  21
TORSDOF 4
ENDMDL
MODEL 7
REMARK VINA RESULT:      -6.3      3.720      5.917
REMARK  4 active torsions:
REMARK  status: ('A' for Active; 'I' for Inactive)
REMARK       I    between atoms: N_2  and  C_4 
REMARK    1  A    between atoms: C_4  and  C_6 
REMARK       I    between atoms: N_10  and  C_11 
REMARK    2  A    between atoms: C_11  and  C_13 
REMARK    3  A    between atoms: C_13  and  C_14 
REMARK    4  A    between atoms: N_16  and  C_17 
ROOT
HETATM    1  C   UNL     1     -10.501  11.928  66.458  1.00  0.00     0.081 A 
HETATM    2  C   UNL     1     -11.088  11.010  67.488  1.00  0.00     0.018 A 
HETATM    3  C   UNL     1     -11.782  11.578  68.690  1.00  0.00     0.021 A 
HETATM    4  C   UNL     1     -11.890  13.064  68.862  1.00  0.00     0.124 A 
HETATM    5  N   UNL     1     -11.303  13.982  67.832  1.00  0.00    -0.362 N 
HETATM    6  C   UNL     1     -11.411  15.469  68.003  1.00  0.00     0.159 C 
HETATM    7  O   UNL     1     -12.105  16.036  69.206  1.00  0.00    -0.177 OA
HETATM    8  C   UNL     1     -10.609  13.415  66.629  1.00  0.00     0.137 A 
ENDROOT
BRANCH   6   9
HETATM    9  C   UNL     1     -10.824  16.387  66.973  1.00  0.00     0.149 C 
BRANCH   9  10
HETATM   10  C   UNL     1     -10.133  17.648  67.399  1.00  0.00     0.077 A 
HETATM   11  C   UNL     1      -8.678  17.786  67.738  1.00  0.00     0.143 A 
HETATM   12  N   UNL     1      -8.421  19.216  68.109  1.00  0.00    -0.247 N 
HETATM   13  N   UNL     1      -9.717  19.963  68.000  1.00  0.00     0.009 NA
HETATM   14  N   UNL     1     -10.775  18.994  67.560  1.00  0.00    -0.162 NA
BRANCH  12  15
HETATM   15  C   UNL     1      -7.101  19.797  68.518  1.00  0.00     0.054 A 
HETATM   16  C   UNL     1      -6.633  19.671  69.938  1.00  0.00     0.031 A 
HETATM   17  C   UNL     1      -5.313  20.253  70.347  1.00  0.00     0.002 A 
HETATM   18  C   UNL     1      -4.459  20.960  69.336  1.00  0.00     0.000 A 
HETATM   19  C   UNL     1      -4.926  21.086  67.917  1.00  0.00     0.002 A 
HETATM   20  C   UNL     1      -6.247  20.504  67.508  1.00  0.00     0.031 A 
ENDBRANCH  12  15
ENDBRANCH   9  10
ENDBRANCH   6   9
BRANCH   1  21
HETATM   21  C   UNL     1      -9.807  11.361  65.255  1.00  0.00     0.158 C 
HETATM   22  N   UNL     1     -10.490  11.371  63.920  1.00  0.00    -0.371 N 
HETATM   23  C   UNL     1      -9.796  10.803  62.718  1.00  0.00     0.150 C 
HETATM   24  C   UNL     1     -11.868  11.949  63.787  1.00  0.00     0.149 C 
HETATM   25  O   UNL     1      -8.429  10.783  65.388  1.00  0.00    -0.177 OA
ENDBRANCH   1  21
TORSDOF 4
ENDMDL
MODEL 8
REMARK VINA RESULT:      -6.3      4.083      6.663
REMARK  4 active torsions:
REMARK  status: ('A' for Active; 'I' for Inactive)
REMARK       I    between atoms: N_2  and  C_4 
REMARK    1  A    between atoms: C_4  and  C_6 
REMARK       I    between atoms: N_10  and  C_11 
REMARK    2  A    between atoms: C_11  and  C_13 
REMARK    3  A    between atoms: C_13  and  C_14 
REMARK    4  A    between atoms: N_16  and  C_17 
ROOT
HETATM    1  C   UNL     1      -5.757  17.431  69.067  1.00  0.00     0.081 A 
HETATM    2  C   UNL     1      -4.664  17.988  68.203  1.00  0.00     0.018 A 
HETATM    3  C   UNL     1      -5.006  18.856  67.028  1.00  0.00     0.021 A 
HETATM    4  C   UNL     1      -6.440  19.167  66.717  1.00  0.00     0.124 A 
HETATM    5  N   UNL     1      -7.532  18.610  67.581  1.00  0.00    -0.362 N 
HETATM    6  C   UNL     1      -8.966  18.921  67.270  1.00  0.00     0.159 C 
HETATM    7  O   UNL     1      -9.308  19.789  66.095  1.00  0.00    -0.177 OA
HETATM    8  C   UNL     1      -7.191  17.742  68.756  1.00  0.00     0.137 A 
ENDROOT
BRANCH   6   9
HETATM    9  C   UNL     1     -10.059  18.364  68.133  1.00  0.00     0.149 C 
BRANCH   9  10
HETATM   10  C   UNL     1     -10.638  17.014  67.832  1.00  0.00     0.077 A 
HETATM   11  C   UNL     1     -10.373  16.194  66.604  1.00  0.00     0.143 A 
HETATM   12  N   UNL     1     -11.155  14.920  66.719  1.00  0.00    -0.247 N 
HETATM   13  N   UNL     1     -11.905  14.952  68.018  1.00  0.00     0.009 NA
HETATM   14  N   UNL     1     -11.585  16.246  68.706  1.00  0.00    -0.162 NA
BRANCH  12  15
HETATM   15  C   UNL     1     -11.183  13.809  65.712  1.00  0.00     0.054 A 
HETATM   16  C   UNL     1     -10.338  12.587  65.919  1.00  0.00     0.031 A 
HETATM   17  C   UNL     1     -10.366  11.476  64.912  1.00  0.00     0.002 A 
HETATM   18  C   UNL     1     -11.240  11.586  63.697  1.00  0.00     0.000 A 
HETATM   19  C   UNL     1     -12.085  12.807  63.490  1.00  0.00     0.002 A 
HETATM   20  C   UNL     1     -12.057  13.918  64.497  1.00  0.00     0.031 A 
ENDBRANCH  12  15
ENDBRANCH   9  10
ENDBRANCH   6   9
BRANCH   1  21
HETATM   21  C   UNL     1      -5.415  16.563  70.242  1.00  0.00     0.158 C 
HETATM   22  N   UNL     1      -5.464  15.070  70.110  1.00  0.00    -0.371 N 
HETATM   23  C   UNL     1      -5.123  14.202  71.285  1.00  0.00     0.150 C 
HETATM   24  C   UNL     1      -5.854  14.444  68.804  1.00  0.00     0.149 C 
HETATM   25  O   UNL     1      -5.025  17.189  71.548  1.00  0.00    -0.177 OA
ENDBRANCH   1  21
TORSDOF 4
ENDMDL
MODEL 9
REMARK VINA RESULT:      -6.2      3.456      6.033
REMARK  4 active torsions:
REMARK  status: ('A' for Active; 'I' for Inactive)
REMARK       I    between atoms: N_2  and  C_4 
REMARK    1  A    between atoms: C_4  and  C_6 
REMARK       I    between atoms: N_10  and  C_11 
REMARK    2  A    between atoms: C_11  and  C_13 
REMARK    3  A    between atoms: C_13  and  C_14 
REMARK    4  A    between atoms: N_16  and  C_17 
ROOT
HETATM    1  C   UNL     1     -10.064  11.615  65.903  1.00  0.00     0.081 A 
HETATM    2  C   UNL     1     -10.607  10.941  64.678  1.00  0.00     0.018 A 
HETATM    3  C   UNL     1     -11.270  11.754  63.606  1.00  0.00     0.021 A 
HETATM    4  C   UNL     1     -11.391  13.241  63.759  1.00  0.00     0.124 A 
HETATM    5  N   UNL     1     -10.848  13.915  64.984  1.00  0.00    -0.362 N 
HETATM    6  C   UNL     1     -10.969  15.403  65.137  1.00  0.00     0.159 C 
HETATM    7  O   UNL     1     -11.632  16.215  64.065  1.00  0.00    -0.177 OA
HETATM    8  C   UNL     1     -10.185  13.103  66.056  1.00  0.00     0.137 A 
ENDROOT
BRANCH   6   9
HETATM    9  C   UNL     1     -10.426  16.077  66.362  1.00  0.00     0.149 C 
BRANCH   9  10
HETATM   10  C   UNL     1      -9.820  17.445  66.259  1.00  0.00     0.077 A 
HETATM   11  C   UNL     1      -8.354  17.765  66.275  1.00  0.00     0.143 A 
HETATM   12  N   UNL     1      -8.202  19.251  66.147  1.00  0.00    -0.247 N 
HETATM   13  N   UNL     1      -9.573  19.851  66.052  1.00  0.00     0.009 NA
HETATM   14  N   UNL     1     -10.574  18.735  66.120  1.00  0.00    -0.162 NA
BRANCH  12  15
HETATM   15  C   UNL     1      -6.906  20.005  66.120  1.00  0.00     0.054 A 
HETATM   16  C   UNL     1      -6.087  20.044  64.864  1.00  0.00     0.031 A 
HETATM   17  C   UNL     1      -4.791  20.798  64.837  1.00  0.00     0.002 A 
HETATM   18  C   UNL     1      -4.314  21.514  66.066  1.00  0.00     0.000 A 
HETATM   19  C   UNL     1      -5.133  21.476  67.321  1.00  0.00     0.002 A 
HETATM   20  C   UNL     1      -6.428  20.722  67.348  1.00  0.00     0.031 A 
ENDBRANCH  12  15
ENDBRANCH   9  10
ENDBRANCH   6   9
BRANCH   1  21
HETATM   21  C   UNL     1      -9.400  10.802  66.975  1.00  0.00     0.158 C 
HETATM   22  N   UNL     1     -10.145  10.471  68.234  1.00  0.00    -0.371 N 
HETATM   23  C   UNL     1      -9.482   9.658  69.306  1.00  0.00     0.150 C 
HETATM   24  C   UNL     1     -11.553  10.953  68.421  1.00  0.00     0.149 C 
HETATM   25  O   UNL     1      -7.992  10.321  66.788  1.00  0.00    -0.177 OA
ENDBRANCH   1  21
TORSDOF 4
ENDMDL
