MODEL 1
REMARK VINA RESULT:      -0.0      0.000      0.000
REMARK  7 active torsions:
REMARK  status: ('A' for Active; 'I' for Inactive)
REMARK    1  A    between atoms: C_5  and  C_6 
REMARK       I    between atoms: C_6  and  N_8 
REMARK    2  A    between atoms: N_8  and  C_9 
REMARK    3  A    between atoms: C_9  and  C_10 
REMARK       I    between atoms: C_10  and  N_12 
REMARK    4  A    between atoms: N_12  and  C_13 
REMARK    5  A    between atoms: C_17  and  N_18 
REMARK    6  A    between atoms: C_26  and  C_27 
REMARK       I    between atoms: C_27  and  N_29 
REMARK    7  A    between atoms: N_29  and  C_30 
ROOT
HETATM    1  C   UNL     1       6.045   5.502  -0.702  1.00  0.00     0.185 C 
HETATM    2  O   UNL     1       5.670   5.296   0.736  1.00  0.00    -0.172 OA
HETATM    3  N   UNL     1       5.743   4.438  -1.715  1.00  0.00    -0.360 N 
HETATM    4  H   UNL     1       5.989   4.572  -2.659  1.00  0.00     0.162 HD
ENDROOT
BRANCH   3   5
HETATM    5  C   UNL     1       5.067   3.168  -1.291  1.00  0.00     0.209 C 
BRANCH   5   6
HETATM    6  C   UNL     1       3.586   3.149  -1.057  1.00  0.00     0.173 C 
HETATM    7  O   UNL     1       2.670   2.567  -2.093  1.00  0.00    -0.175 OA
HETATM    8  N   UNL     1       3.019   3.712   0.212  1.00  0.00    -0.337 N 
HETATM    9  H   UNL     1       3.620   4.094   0.892  1.00  0.00     0.168 HD
BRANCH   8  10
HETATM   10  C   UNL     1       1.538   3.694   0.446  1.00  0.00     0.036 A 
HETATM   11  C   UNL     1       0.912   2.558   1.200  1.00  0.00     0.029 A 
HETATM   12  C   UNL     1      -0.570   2.539   1.433  1.00  0.00     0.004 A 
HETATM   13  C   UNL     1      -1.425   3.656   0.913  1.00  0.00     0.030 A 
HETATM   14  C   UNL     1      -0.799   4.792   0.160  1.00  0.00     0.038 A 
HETATM   15  C   UNL     1       0.682   4.811  -0.074  1.00  0.00     0.059 A 
BRANCH  14  16
HETATM   16  N   UNL     1      -1.655   5.909  -0.360  1.00  0.00    -0.329 N 
HETATM   17  C   UNL     1      -2.724   5.788  -1.405  1.00  0.00     0.131 A 
HETATM   18  C   UNL     1      -3.321   7.147  -1.617  1.00  0.00     0.028 A 
HETATM   19  C   UNL     1      -2.621   8.109  -0.704  1.00  0.00     0.089 A 
HETATM   20  C   UNL     1      -1.591   7.344   0.073  1.00  0.00     0.158 A 
HETATM   21  O   UNL     1      -0.660   7.913   1.102  1.00  0.00    -0.177 OA
ENDBRANCH  14  16
ENDBRANCH   8  10
ENDBRANCH   5   6
ENDBRANCH   3   5
BRANCH   1  22
HETATM   22  C   UNL     1       6.721   6.771  -1.127  1.00  0.00     0.018 A 
HETATM   23  C   UNL     1       8.203   6.790  -1.361  1.00  0.00     0.016 A 
HETATM   24  C   UNL     1       8.879   8.060  -1.785  1.00  0.00     0.009 A 
HETATM   25  C   UNL     1       8.074   9.311  -1.976  1.00  0.00    -0.047 A 
HETATM   26  C   UNL     1       8.750  10.581  -2.400  1.00  0.00     0.049 C 
HETATM   27  C   UNL     1       6.593   9.292  -1.742  1.00  0.00     0.024 A 
HETATM   28  C   UNL     1       5.916   8.023  -1.317  1.00  0.00     0.032 A 
BRANCH  27  29
HETATM   29  C   UNL     1       5.787  10.544  -1.932  1.00  0.00     0.185 C 
HETATM   30  O   UNL     1       5.220  10.872  -3.281  1.00  0.00    -0.172 OA
HETATM   31  N   UNL     1       5.550  11.466  -0.774  1.00  0.00    -0.364 N 
HETATM   32  H   UNL     1       5.922  11.251   0.111  1.00  0.00     0.162 HD
BRANCH  31  33
HETATM   33  C   UNL     1       4.745  12.717  -0.964  1.00  0.00     0.075 C 
HETATM   34  C   UNL     1       3.264  12.699  -0.728  1.00  0.00     0.032 C 
HETATM   35  C   UNL     1       5.421  13.986  -1.391  1.00  0.00     0.032 C 
ENDBRANCH  31  33
ENDBRANCH  27  29
ENDBRANCH   1  22
TORSDOF 7
ENDMDL
MODEL 2
REMARK VINA RESULT:      -0.0     11.280     15.849
REMARK  7 active torsions:
REMARK  status: ('A' for Active; 'I' for Inactive)
REMARK    1  A    between atoms: C_5  and  C_6 
REMARK       I    between atoms: C_6  and  N_8 
REMARK    2  A    between atoms: N_8  and  C_9 
REMARK    3  A    between atoms: C_9  and  C_10 
REMARK       I    between atoms: C_10  and  N_12 
REMARK    4  A    between atoms: N_12  and  C_13 
REMARK    5  A    between atoms: C_17  and  N_18 
REMARK    6  A    between atoms: C_26  and  C_27 
REMARK       I    between atoms: C_27  and  N_29 
REMARK    7  A    between atoms: N_29  and  C_30 
ROOT
HETATM    1  C   UNL     1      -0.872  -3.627  -1.400  1.00  0.00     0.185 C 
HETATM    2  O   UNL     1      -2.124  -4.186  -2.008  1.00  0.00    -0.172 OA
HETATM    3  N   UNL     1      -0.154  -2.494  -2.072  1.00  0.00    -0.360 N 
HETATM    4  H   UNL     1       0.668  -2.126  -1.674  1.00  0.00     0.162 HD
ENDROOT
BRANCH   3   5
HETATM    5  C   UNL     1      -0.688  -1.921  -3.351  1.00  0.00     0.209 C 
BRANCH   5   6
HETATM    6  C   UNL     1      -0.455  -2.637  -4.649  1.00  0.00     0.173 C 
HETATM    7  O   UNL     1       0.608  -2.157  -5.591  1.00  0.00    -0.175 OA
HETATM    8  N   UNL     1      -1.286  -3.835  -5.004  1.00  0.00    -0.337 N 
HETATM    9  H   UNL     1      -1.985  -4.150  -4.385  1.00  0.00     0.168 HD
BRANCH   8  10
HETATM   10  C   UNL     1      -1.054  -4.551  -6.301  1.00  0.00     0.036 A 
HETATM   11  C   UNL     1      -1.867  -4.195  -7.510  1.00  0.00     0.029 A 
HETATM   12  C   UNL     1      -1.634  -4.911  -8.807  1.00  0.00     0.004 A 
HETATM   13  C   UNL     1      -0.589  -5.983  -8.895  1.00  0.00     0.030 A 
HETATM   14  C   UNL     1       0.224  -6.339  -7.686  1.00  0.00     0.038 A 
HETATM   15  C   UNL     1      -0.008  -5.623  -6.389  1.00  0.00     0.059 A 
BRANCH  14  16
HETATM   16  N   UNL     1       1.269  -7.411  -7.774  1.00  0.00    -0.329 N 
HETATM   17  C   UNL     1       2.514  -7.363  -8.610  1.00  0.00     0.131 A 
HETATM   18  C   UNL     1       3.267  -8.641  -8.394  1.00  0.00     0.028 A 
HETATM   19  C   UNL     1       2.489  -9.480  -7.424  1.00  0.00     0.089 A 
HETATM   20  C   UNL     1       1.254  -8.721  -7.041  1.00  0.00     0.158 A 
HETATM   21  O   UNL     1       0.190  -9.186  -6.092  1.00  0.00    -0.177 OA
ENDBRANCH  14  16
ENDBRANCH   8  10
ENDBRANCH   5   6
ENDBRANCH   3   5
BRANCH   1  22
HETATM   22  C   UNL     1      -0.338  -4.200  -0.121  1.00  0.00     0.018 A 
HETATM   23  C   UNL     1      -0.551  -3.472   1.173  1.00  0.00     0.016 A 
HETATM   24  C   UNL     1      -0.017  -4.045   2.453  1.00  0.00     0.009 A 
HETATM   25  C   UNL     1       0.730  -5.346   2.438  1.00  0.00    -0.047 A 
HETATM   26  C   UNL     1       1.264  -5.918   3.717  1.00  0.00     0.049 C 
HETATM   27  C   UNL     1       0.943  -6.073   1.144  1.00  0.00     0.024 A 
HETATM   28  C   UNL     1       0.409  -5.500  -0.136  1.00  0.00     0.032 A 
BRANCH  27  29
HETATM   29  C   UNL     1       1.690  -7.374   1.129  1.00  0.00     0.185 C 
HETATM   30  O   UNL     1       3.182  -7.380   0.976  1.00  0.00    -0.172 OA
HETATM   31  N   UNL     1       0.944  -8.668   1.267  1.00  0.00    -0.364 N 
HETATM   32  H   UNL     1      -0.035  -8.664   1.367  1.00  0.00     0.162 HD
BRANCH  31  33
HETATM   33  C   UNL     1       1.691  -9.969   1.252  1.00  0.00     0.075 C 
HETATM   34  C   UNL     1       1.909 -10.694  -0.043  1.00  0.00     0.032 C 
HETATM   35  C   UNL     1       2.220 -10.545   2.532  1.00  0.00     0.032 C 
ENDBRANCH  31  33
ENDBRANCH  27  29
ENDBRANCH   1  22
TORSDOF 7
ENDMDL
MODEL 3
REMARK VINA RESULT:      -0.0     11.542     15.169
REMARK  7 active torsions:
REMARK  status: ('A' for Active; 'I' for Inactive)
REMARK    1  A    between atoms: C_5  and  C_6 
REMARK       I    between atoms: C_6  and  N_8 
REMARK    2  A    between atoms: N_8  and  C_9 
REMARK    3  A    between atoms: C_9  and  C_10 
REMARK       I    between atoms: C_10  and  N_12 
REMARK    4  A    between atoms: N_12  and  C_13 
REMARK    5  A    between atoms: C_17  and  N_18 
REMARK    6  A    between atoms: C_26  and  C_27 
REMARK       I    between atoms: C_27  and  N_29 
REMARK    7  A    between atoms: N_29  and  C_30 
ROOT
HETATM    1  C   UNL     1      -1.673  -2.368  -6.884  1.00  0.00     0.185 C 
HETATM    2  O   UNL     1      -1.191  -1.359  -7.883  1.00  0.00    -0.172 OA
HETATM    3  N   UNL     1      -1.566  -3.834  -7.186  1.00  0.00    -0.360 N 
HETATM    4  H   UNL     1      -1.882  -4.497  -6.530  1.00  0.00     0.162 HD
ENDROOT
BRANCH   3   5
HETATM    5  C   UNL     1      -0.976  -4.290  -8.488  1.00  0.00     0.209 C 
BRANCH   5   6
HETATM    6  C   UNL     1      -1.799  -4.243  -9.741  1.00  0.00     0.173 C 
HETATM    7  O   UNL     1      -2.431  -5.496 -10.271  1.00  0.00    -0.175 OA
HETATM    8  N   UNL     1      -1.989  -2.943 -10.465  1.00  0.00    -0.337 N 
HETATM    9  H   UNL     1      -1.573  -2.121 -10.117  1.00  0.00     0.168 HD
BRANCH   8  10
HETATM   10  C   UNL     1      -2.811  -2.896 -11.719  1.00  0.00     0.036 A 
HETATM   11  C   UNL     1      -2.146  -3.025 -13.057  1.00  0.00     0.029 A 
HETATM   12  C   UNL     1      -2.969  -2.978 -14.311  1.00  0.00     0.004 A 
HETATM   13  C   UNL     1      -4.456  -2.802 -14.226  1.00  0.00     0.030 A 
HETATM   14  C   UNL     1      -5.121  -2.673 -12.887  1.00  0.00     0.038 A 
HETATM   15  C   UNL     1      -4.298  -2.720 -11.634  1.00  0.00     0.059 A 
BRANCH  14  16
HETATM   16  N   UNL     1      -6.608  -2.497 -12.802  1.00  0.00    -0.329 N 
HETATM   17  C   UNL     1      -7.641  -3.493 -13.238  1.00  0.00     0.131 A 
HETATM   18  C   UNL     1      -8.994  -2.906 -12.972  1.00  0.00     0.028 A 
HETATM   19  C   UNL     1      -8.799  -1.545 -12.372  1.00  0.00     0.089 A 
HETATM   20  C   UNL     1      -7.324  -1.292 -12.267  1.00  0.00     0.158 A 
HETATM   21  O   UNL     1      -6.678  -0.053 -11.722  1.00  0.00    -0.177 OA
ENDBRANCH  14  16
ENDBRANCH   8  10
ENDBRANCH   5   6
ENDBRANCH   3   5
BRANCH   1  22
HETATM   22  C   UNL     1      -2.263  -1.912  -5.582  1.00  0.00     0.018 A 
HETATM   23  C   UNL     1      -1.447  -1.977  -4.326  1.00  0.00     0.016 A 
HETATM   24  C   UNL     1      -2.037  -1.520  -3.024  1.00  0.00     0.009 A 
HETATM   25  C   UNL     1      -3.443  -1.000  -2.979  1.00  0.00    -0.047 A 
HETATM   26  C   UNL     1      -4.032  -0.544  -1.678  1.00  0.00     0.049 C 
HETATM   27  C   UNL     1      -4.259  -0.936  -4.236  1.00  0.00     0.024 A 
HETATM   28  C   UNL     1      -3.669  -1.392  -5.537  1.00  0.00     0.032 A 
BRANCH  27  29
HETATM   29  C   UNL     1      -5.665  -0.416  -4.191  1.00  0.00     0.185 C 
HETATM   30  O   UNL     1      -6.803  -1.352  -3.910  1.00  0.00    -0.172 OA
HETATM   31  N   UNL     1      -5.934   1.041  -4.428  1.00  0.00    -0.364 N 
HETATM   32  H   UNL     1      -5.187   1.655  -4.612  1.00  0.00     0.162 HD
BRANCH  31  33
HETATM   33  C   UNL     1      -7.340   1.561  -4.383  1.00  0.00     0.075 C 
HETATM   34  C   UNL     1      -8.159   1.617  -5.638  1.00  0.00     0.032 C 
HETATM   35  C   UNL     1      -7.927   2.025  -3.083  1.00  0.00     0.032 C 
ENDBRANCH  31  33
ENDBRANCH  27  29
ENDBRANCH   1  22
TORSDOF 7
ENDMDL
MODEL 4
REMARK VINA RESULT:      -0.0     12.886     15.317
REMARK  7 active torsions:
REMARK  status: ('A' for Active; 'I' for Inactive)
REMARK    1  A    between atoms: C_5  and  C_6 
REMARK       I    between atoms: C_6  and  N_8 
REMARK    2  A    between atoms: N_8  and  C_9 
REMARK    3  A    between atoms: C_9  and  C_10 
REMARK       I    between atoms: C_10  and  N_12 
REMARK    4  A    between atoms: N_12  and  C_13 
REMARK    5  A    between atoms: C_17  and  N_18 
REMARK    6  A    between atoms: C_26  and  C_27 
REMARK       I    between atoms: C_27  and  N_29 
REMARK    7  A    between atoms: N_29  and  C_30 
ROOT
HETATM    1  C   UNL     1      -5.159  -4.747  -0.793  1.00  0.00     0.185 C 
HETATM    2  O   UNL     1      -5.959  -5.958  -0.416  1.00  0.00    -0.172 OA
HETATM    3  N   UNL     1      -5.840  -3.558  -1.404  1.00  0.00    -0.360 N 
HETATM    4  H   UNL     1      -5.315  -2.763  -1.652  1.00  0.00     0.162 HD
ENDROOT
BRANCH   3   5
HETATM    5  C   UNL     1      -7.322  -3.580  -1.636  1.00  0.00     0.209 C 
BRANCH   5   6
HETATM    6  C   UNL     1      -8.264  -3.342  -0.494  1.00  0.00     0.173 C 
HETATM    7  O   UNL     1      -8.940  -2.011  -0.344  1.00  0.00    -0.175 OA
HETATM    8  N   UNL     1      -8.531  -4.435   0.498  1.00  0.00    -0.337 N 
HETATM    9  H   UNL     1      -8.087  -5.308   0.400  1.00  0.00     0.168 HD
BRANCH   8  10
HETATM   10  C   UNL     1      -9.473  -4.196   1.641  1.00  0.00     0.036 A 
HETATM   11  C   UNL     1     -10.915  -4.592   1.519  1.00  0.00     0.029 A 
HETATM   12  C   UNL     1     -11.858  -4.353   2.661  1.00  0.00     0.004 A 
HETATM   13  C   UNL     1     -11.358  -3.720   3.926  1.00  0.00     0.030 A 
HETATM   14  C   UNL     1      -9.916  -3.325   4.048  1.00  0.00     0.038 A 
HETATM   15  C   UNL     1      -8.974  -3.563   2.905  1.00  0.00     0.059 A 
BRANCH  14  16
HETATM   16  N   UNL     1      -9.417  -2.691   5.313  1.00  0.00    -0.329 N 
HETATM   17  C   UNL     1      -9.844  -1.363   5.862  1.00  0.00     0.131 A 
HETATM   18  C   UNL     1      -9.094  -1.125   7.138  1.00  0.00     0.028 A 
HETATM   19  C   UNL     1      -8.203  -2.308   7.379  1.00  0.00     0.089 A 
HETATM   20  C   UNL     1      -8.402  -3.276   6.251  1.00  0.00     0.158 A 
HETATM   21  O   UNL     1      -7.710  -4.596   6.088  1.00  0.00    -0.177 OA
ENDBRANCH  14  16
ENDBRANCH   8  10
ENDBRANCH   5   6
ENDBRANCH   3   5
BRANCH   1  22
HETATM   22  C   UNL     1      -3.677  -4.724  -0.560  1.00  0.00     0.018 A 
HETATM   23  C   UNL     1      -2.735  -4.987  -1.698  1.00  0.00     0.016 A 
HETATM   24  C   UNL     1      -1.254  -4.965  -1.465  1.00  0.00     0.009 A 
HETATM   25  C   UNL     1      -0.714  -4.680  -0.095  1.00  0.00    -0.047 A 
HETATM   26  C   UNL     1       0.768  -4.658   0.138  1.00  0.00     0.049 C 
HETATM   27  C   UNL     1      -1.656  -4.417   1.043  1.00  0.00     0.024 A 
HETATM   28  C   UNL     1      -3.138  -4.440   0.810  1.00  0.00     0.032 A 
BRANCH  27  29
HETATM   29  C   UNL     1      -1.116  -4.132   2.413  1.00  0.00     0.185 C 
HETATM   30  O   UNL     1      -0.795  -2.723   2.814  1.00  0.00    -0.172 OA
HETATM   31  N   UNL     1      -0.898  -5.257   3.382  1.00  0.00    -0.364 N 
HETATM   32  H   UNL     1      -1.109  -6.181   3.118  1.00  0.00     0.162 HD
BRANCH  31  33
HETATM   33  C   UNL     1      -0.358  -4.972   4.752  1.00  0.00     0.075 C 
HETATM   34  C   UNL     1      -1.300  -4.715   5.890  1.00  0.00     0.032 C 
HETATM   35  C   UNL     1       1.123  -4.943   4.983  1.00  0.00     0.032 C 
ENDBRANCH  31  33
ENDBRANCH  27  29
ENDBRANCH   1  22
TORSDOF 7
ENDMDL
MODEL 5
REMARK VINA RESULT:      -0.0      7.411      8.266
REMARK  7 active torsions:
REMARK  status: ('A' for Active; 'I' for Inactive)
REMARK    1  A    between atoms: C_5  and  C_6 
REMARK       I    between atoms: C_6  and  N_8 
REMARK    2  A    between atoms: N_8  and  C_9 
REMARK    3  A    between atoms: C_9  and  C_10 
REMARK       I    between atoms: C_10  and  N_12 
REMARK    4  A    between atoms: N_12  and  C_13 
REMARK    5  A    between atoms: C_17  and  N_18 
REMARK    6  A    between atoms: C_26  and  C_27 
REMARK       I    between atoms: C_27  and  N_29 
REMARK    7  A    between atoms: N_29  and  C_30 
ROOT
HETATM    1  C   UNL     1       6.496   5.572   6.901  1.00  0.00     0.185 C 
HETATM    2  O   UNL     1       6.167   4.487   7.883  1.00  0.00    -0.172 OA
HETATM    3  N   UNL     1       6.796   5.225   5.473  1.00  0.00    -0.360 N 
HETATM    4  H   UNL     1       7.011   5.937   4.828  1.00  0.00     0.162 HD
ENDROOT
BRANCH   3   5
HETATM    5  C   UNL     1       6.767   3.793   5.027  1.00  0.00     0.209 C 
BRANCH   5   6
HETATM    6  C   UNL     1       5.455   3.119   4.754  1.00  0.00     0.173 C 
HETATM    7  O   UNL     1       4.991   2.924   3.341  1.00  0.00    -0.175 OA
HETATM    8  N   UNL     1       4.607   2.639   5.895  1.00  0.00    -0.337 N 
HETATM    9  H   UNL     1       4.912   2.767   6.823  1.00  0.00     0.168 HD
BRANCH   8  10
HETATM   10  C   UNL     1       3.295   1.965   5.622  1.00  0.00     0.036 A 
HETATM   11  C   UNL     1       3.225   0.469   5.533  1.00  0.00     0.029 A 
HETATM   12  C   UNL     1       1.913  -0.205   5.260  1.00  0.00     0.004 A 
HETATM   13  C   UNL     1       0.671   0.616   5.077  1.00  0.00     0.030 A 
HETATM   14  C   UNL     1       0.741   2.112   5.167  1.00  0.00     0.038 A 
HETATM   15  C   UNL     1       2.053   2.786   5.439  1.00  0.00     0.059 A 
BRANCH  14  16
HETATM   16  N   UNL     1      -0.500   2.933   4.984  1.00  0.00    -0.329 N 
HETATM   17  C   UNL     1      -1.317   3.030   3.730  1.00  0.00     0.131 A 
HETATM   18  C   UNL     1      -2.464   3.958   3.994  1.00  0.00     0.028 A 
HETATM   19  C   UNL     1      -2.358   4.435   5.412  1.00  0.00     0.089 A 
HETATM   20  C   UNL     1      -1.144   3.802   6.024  1.00  0.00     0.158 A 
HETATM   21  O   UNL     1      -0.658   4.002   7.429  1.00  0.00    -0.177 OA
ENDBRANCH  14  16
ENDBRANCH   8  10
ENDBRANCH   5   6
ENDBRANCH   3   5
BRANCH   1  22
HETATM   22  C   UNL     1       6.525   7.004   7.347  1.00  0.00     0.018 A 
HETATM   23  C   UNL     1       7.838   7.696   7.561  1.00  0.00     0.016 A 
HETATM   24  C   UNL     1       7.867   9.128   8.007  1.00  0.00     0.009 A 
HETATM   25  C   UNL     1       6.582   9.867   8.239  1.00  0.00    -0.047 A 
HETATM   26  C   UNL     1       6.611  11.299   8.685  1.00  0.00     0.049 C 
HETATM   27  C   UNL     1       5.269   9.175   8.026  1.00  0.00     0.024 A 
HETATM   28  C   UNL     1       5.240   7.743   7.580  1.00  0.00     0.032 A 
BRANCH  27  29
HETATM   29  C   UNL     1       3.985   9.914   8.258  1.00  0.00     0.185 C 
HETATM   30  O   UNL     1       3.356  10.694   7.141  1.00  0.00    -0.172 OA
HETATM   31  N   UNL     1       3.329   9.873   9.606  1.00  0.00    -0.364 N 
HETATM   32  H   UNL     1       3.741   9.361  10.338  1.00  0.00     0.162 HD
BRANCH  31  33
HETATM   33  C   UNL     1       2.045  10.612   9.838  1.00  0.00     0.075 C 
HETATM   34  C   UNL     1       2.073  12.045  10.279  1.00  0.00     0.032 C 
HETATM   35  C   UNL     1       0.731   9.918   9.630  1.00  0.00     0.032 C 
ENDBRANCH  31  33
ENDBRANCH  27  29
ENDBRANCH   1  22
TORSDOF 7
ENDMDL
MODEL 6
REMARK VINA RESULT:      -0.0      9.154     15.154
REMARK  7 active torsions:
REMARK  status: ('A' for Active; 'I' for Inactive)
REMARK    1  A    between atoms: C_5  and  C_6 
REMARK       I    between atoms: C_6  and  N_8 
REMARK    2  A    between atoms: N_8  and  C_9 
REMARK    3  A    between atoms: C_9  and  C_10 
REMARK       I    between atoms: C_10  and  N_12 
REMARK    4  A    between atoms: N_12  and  C_13 
REMARK    5  A    between atoms: C_17  and  N_18 
REMARK    6  A    between atoms: C_26  and  C_27 
REMARK       I    between atoms: C_27  and  N_29 
REMARK    7  A    between atoms: N_29  and  C_30 
ROOT
HETATM    1  C   UNL     1       3.897  -4.509   2.020  1.00  0.00     0.185 C 
HETATM    2  O   UNL     1       3.230  -3.359   1.325  1.00  0.00    -0.172 OA
HETATM    3  N   UNL     1       5.038  -4.256   2.961  1.00  0.00    -0.360 N 
HETATM    4  H   UNL     1       5.476  -5.011   3.418  1.00  0.00     0.162 HD
ENDROOT
BRANCH   3   5
HETATM    5  C   UNL     1       5.512  -2.854   3.207  1.00  0.00     0.209 C 
BRANCH   5   6
HETATM    6  C   UNL     1       6.391  -2.173   2.200  1.00  0.00     0.173 C 
HETATM    7  O   UNL     1       7.864  -2.051   2.452  1.00  0.00    -0.175 OA
HETATM    8  N   UNL     1       5.796  -1.612   0.942  1.00  0.00    -0.337 N 
HETATM    9  H   UNL     1       4.828  -1.692   0.778  1.00  0.00     0.168 HD
BRANCH   8  10
HETATM   10  C   UNL     1       6.675  -0.930  -0.064  1.00  0.00     0.036 A 
HETATM   11  C   UNL     1       6.851   0.559  -0.019  1.00  0.00     0.029 A 
HETATM   12  C   UNL     1       7.730   1.240  -1.026  1.00  0.00     0.004 A 
HETATM   13  C   UNL     1       8.433   0.433  -2.076  1.00  0.00     0.030 A 
HETATM   14  C   UNL     1       8.257  -1.056  -2.120  1.00  0.00     0.038 A 
HETATM   15  C   UNL     1       7.378  -1.738  -1.114  1.00  0.00     0.059 A 
BRANCH  14  16
HETATM   16  N   UNL     1       8.961  -1.863  -3.171  1.00  0.00    -0.329 N 
HETATM   17  C   UNL     1      10.445  -2.020  -3.316  1.00  0.00     0.131 A 
HETATM   18  C   UNL     1      10.705  -2.909  -4.495  1.00  0.00     0.028 A 
HETATM   19  C   UNL     1       9.381  -3.302  -5.080  1.00  0.00     0.089 A 
HETATM   20  C   UNL     1       8.303  -2.656  -4.262  1.00  0.00     0.158 A 
HETATM   21  O   UNL     1       6.826  -2.780  -4.492  1.00  0.00    -0.177 OA
ENDBRANCH  14  16
ENDBRANCH   8  10
ENDBRANCH   5   6
ENDBRANCH   3   5
BRANCH   1  22
HETATM   22  C   UNL     1       3.424  -5.911   1.775  1.00  0.00     0.018 A 
HETATM   23  C   UNL     1       2.569  -6.603   2.795  1.00  0.00     0.016 A 
HETATM   24  C   UNL     1       2.095  -8.005   2.549  1.00  0.00     0.009 A 
HETATM   25  C   UNL     1       2.477  -8.715   1.284  1.00  0.00    -0.047 A 
HETATM   26  C   UNL     1       2.003 -10.117   1.039  1.00  0.00     0.049 C 
HETATM   27  C   UNL     1       3.332  -8.023   0.264  1.00  0.00     0.024 A 
HETATM   28  C   UNL     1       3.806  -6.621   0.510  1.00  0.00     0.032 A 
BRANCH  27  29
HETATM   29  C   UNL     1       3.714  -8.733  -1.001  1.00  0.00     0.185 C 
HETATM   30  O   UNL     1       4.955  -9.573  -1.044  1.00  0.00    -0.172 OA
HETATM   31  N   UNL     1       2.854  -8.602  -2.223  1.00  0.00    -0.364 N 
HETATM   32  H   UNL     1       2.039  -8.050  -2.194  1.00  0.00     0.162 HD
BRANCH  31  33
HETATM   33  C   UNL     1       3.236  -9.312  -3.488  1.00  0.00     0.075 C 
HETATM   34  C   UNL     1       4.094  -8.621  -4.505  1.00  0.00     0.032 C 
HETATM   35  C   UNL     1       2.759 -10.712  -3.735  1.00  0.00     0.032 C 
ENDBRANCH  31  33
ENDBRANCH  27  29
ENDBRANCH   1  22
TORSDOF 7
ENDMDL
MODEL 7
REMARK VINA RESULT:       0.0     10.115     14.035
REMARK  7 active torsions:
REMARK  status: ('A' for Active; 'I' for Inactive)
REMARK    1  A    between atoms: C_5  and  C_6 
REMARK       I    between atoms: C_6  and  N_8 
REMARK    2  A    between atoms: N_8  and  C_9 
REMARK    3  A    between atoms: C_9  and  C_10 
REMARK       I    between atoms: C_10  and  N_12 
REMARK    4  A    between atoms: N_12  and  C_13 
REMARK    5  A    between atoms: C_17  and  N_18 
REMARK    6  A    between atoms: C_26  and  C_27 
REMARK       I    between atoms: C_27  and  N_29 
REMARK    7  A    between atoms: N_29  and  C_30 
ROOT
HETATM    1  C   UNL     1       2.331  -3.603  -3.672  1.00  0.00     0.185 C 
HETATM    2  O   UNL     1       1.650  -2.343  -4.116  1.00  0.00    -0.172 OA
HETATM    3  N   UNL     1       2.729  -3.774  -2.236  1.00  0.00    -0.360 N 
HETATM    4  H   UNL     1       3.176  -4.601  -1.943  1.00  0.00     0.162 HD
ENDROOT
BRANCH   3   5
HETATM    5  C   UNL     1       2.446  -2.685  -1.244  1.00  0.00     0.209 C 
BRANCH   5   6
HETATM    6  C   UNL     1       1.065  -2.523  -0.682  1.00  0.00     0.173 C 
HETATM    7  O   UNL     1       0.757  -3.011   0.702  1.00  0.00    -0.175 OA
HETATM    8  N   UNL     1      -0.008  -1.872  -1.504  1.00  0.00    -0.337 N 
HETATM    9  H   UNL     1       0.195  -1.551  -2.412  1.00  0.00     0.168 HD
BRANCH   8  10
HETATM   10  C   UNL     1      -1.389  -1.710  -0.941  1.00  0.00     0.036 A 
HETATM   11  C   UNL     1      -1.772  -0.435  -0.250  1.00  0.00     0.029 A 
HETATM   12  C   UNL     1      -3.153  -0.273   0.313  1.00  0.00     0.004 A 
HETATM   13  C   UNL     1      -4.151  -1.386   0.183  1.00  0.00     0.030 A 
HETATM   14  C   UNL     1      -3.768  -2.660  -0.509  1.00  0.00     0.038 A 
HETATM   15  C   UNL     1      -2.387  -2.822  -1.071  1.00  0.00     0.059 A 
BRANCH  14  16
HETATM   16  N   UNL     1      -4.766  -3.773  -0.638  1.00  0.00    -0.329 N 
HETATM   17  C   UNL     1      -5.370  -4.552   0.492  1.00  0.00     0.131 A 
HETATM   18  C   UNL     1      -6.311  -5.562  -0.091  1.00  0.00     0.028 A 
HETATM   19  C   UNL     1      -6.290  -5.407  -1.583  1.00  0.00     0.089 A 
HETATM   20  C   UNL     1      -5.335  -4.302  -1.921  1.00  0.00     0.158 A 
HETATM   21  O   UNL     1      -5.006  -3.811  -3.300  1.00  0.00    -0.177 OA
ENDBRANCH  14  16
ENDBRANCH   8  10
ENDBRANCH   5   6
ENDBRANCH   3   5
BRANCH   1  22
HETATM   22  C   UNL     1       2.614  -4.693  -4.663  1.00  0.00     0.018 A 
HETATM   23  C   UNL     1       4.001  -4.871  -5.205  1.00  0.00     0.016 A 
HETATM   24  C   UNL     1       4.285  -5.961  -6.197  1.00  0.00     0.009 A 
HETATM   25  C   UNL     1       3.181  -6.872  -6.646  1.00  0.00    -0.047 A 
HETATM   26  C   UNL     1       3.464  -7.961  -7.637  1.00  0.00     0.049 C 
HETATM   27  C   UNL     1       1.794  -6.693  -6.104  1.00  0.00     0.024 A 
HETATM   28  C   UNL     1       1.510  -5.603  -5.112  1.00  0.00     0.032 A 
BRANCH  27  29
HETATM   29  C   UNL     1       0.690  -7.603  -6.553  1.00  0.00     0.185 C 
HETATM   30  O   UNL     1       0.433  -8.888  -5.823  1.00  0.00    -0.172 OA
HETATM   31  N   UNL     1      -0.158  -7.229  -7.733  1.00  0.00    -0.364 N 
HETATM   32  H   UNL     1       0.010  -6.386  -8.212  1.00  0.00     0.162 HD
BRANCH  31  33
HETATM   33  C   UNL     1      -1.262  -8.140  -8.182  1.00  0.00     0.075 C 
HETATM   34  C   UNL     1      -0.979  -9.230  -9.172  1.00  0.00     0.032 C 
HETATM   35  C   UNL     1      -2.650  -7.960  -7.641  1.00  0.00     0.032 C 
ENDBRANCH  31  33
ENDBRANCH  27  29
ENDBRANCH   1  22
TORSDOF 7
ENDMDL
MODEL 8
REMARK VINA RESULT:       0.0      7.842     12.904
REMARK  7 active torsions:
REMARK  status: ('A' for Active; 'I' for Inactive)
REMARK    1  A    between atoms: C_5  and  C_6 
REMARK       I    between atoms: C_6  and  N_8 
REMARK    2  A    between atoms: N_8  and  C_9 
REMARK    3  A    between atoms: C_9  and  C_10 
REMARK       I    between atoms: C_10  and  N_12 
REMARK    4  A    between atoms: N_12  and  C_13 
REMARK    5  A    between atoms: C_17  and  N_18 
REMARK    6  A    between atoms: C_26  and  C_27 
REMARK       I    between atoms: C_27  and  N_29 
REMARK    7  A    between atoms: N_29  and  C_30 
ROOT
HETATM    1  C   UNL     1      -2.629   1.742   9.711  1.00  0.00     0.185 C 
HETATM    2  O   UNL     1      -3.616   1.602   8.591  1.00  0.00    -0.172 OA
HETATM    3  N   UNL     1      -2.680   2.941  10.611  1.00  0.00    -0.360 N 
HETATM    4  H   UNL     1      -2.032   3.034  11.347  1.00  0.00     0.162 HD
ENDROOT
BRANCH   3   5
HETATM    5  C   UNL     1      -3.719   4.000  10.391  1.00  0.00     0.209 C 
BRANCH   5   6
HETATM    6  C   UNL     1      -3.534   5.018   9.304  1.00  0.00     0.173 C 
HETATM    7  O   UNL     1      -3.086   6.408   9.647  1.00  0.00    -0.175 OA
HETATM    8  N   UNL     1      -3.798   4.646   7.875  1.00  0.00    -0.337 N 
HETATM    9  H   UNL     1      -4.093   3.734   7.651  1.00  0.00     0.168 HD
BRANCH   8  10
HETATM   10  C   UNL     1      -3.614   5.664   6.789  1.00  0.00     0.036 A 
HETATM   11  C   UNL     1      -4.782   6.477   6.317  1.00  0.00     0.029 A 
HETATM   12  C   UNL     1      -4.597   7.495   5.231  1.00  0.00     0.004 A 
HETATM   13  C   UNL     1      -3.244   7.699   4.616  1.00  0.00     0.030 A 
HETATM   14  C   UNL     1      -2.076   6.885   5.088  1.00  0.00     0.038 A 
HETATM   15  C   UNL     1      -2.260   5.867   6.175  1.00  0.00     0.059 A 
BRANCH  14  16
HETATM   16  N   UNL     1      -0.722   7.089   4.474  1.00  0.00    -0.329 N 
HETATM   17  C   UNL     1       0.101   8.340   4.548  1.00  0.00     0.131 A 
HETATM   18  C   UNL     1       1.377   8.102   3.798  1.00  0.00     0.028 A 
HETATM   19  C   UNL     1       1.343   6.702   3.259  1.00  0.00     0.089 A 
HETATM   20  C   UNL     1       0.046   6.076   3.677  1.00  0.00     0.158 A 
HETATM   21  O   UNL     1      -0.405   4.682   3.354  1.00  0.00    -0.177 OA
ENDBRANCH  14  16
ENDBRANCH   8  10
ENDBRANCH   5   6
ENDBRANCH   3   5
BRANCH   1  22
HETATM   22  C   UNL     1      -1.589   0.683   9.932  1.00  0.00     0.018 A 
HETATM   23  C   UNL     1      -1.796  -0.361  10.988  1.00  0.00     0.016 A 
HETATM   24  C   UNL     1      -0.756  -1.420  11.209  1.00  0.00     0.009 A 
HETATM   25  C   UNL     1       0.489  -1.435  10.373  1.00  0.00    -0.047 A 
HETATM   26  C   UNL     1       1.528  -2.494  10.593  1.00  0.00     0.049 C 
HETATM   27  C   UNL     1       0.695  -0.390   9.316  1.00  0.00     0.024 A 
HETATM   28  C   UNL     1      -0.344   0.669   9.096  1.00  0.00     0.032 A 
BRANCH  27  29
HETATM   29  C   UNL     1       1.940  -0.404   8.480  1.00  0.00     0.185 C 
HETATM   30  O   UNL     1       3.165   0.326   8.946  1.00  0.00    -0.172 OA
HETATM   31  N   UNL     1       1.961  -1.149   7.179  1.00  0.00    -0.364 N 
HETATM   32  H   UNL     1       1.158  -1.629   6.873  1.00  0.00     0.162 HD
BRANCH  31  33
HETATM   33  C   UNL     1       3.206  -1.164   6.343  1.00  0.00     0.075 C 
HETATM   34  C   UNL     1       4.248  -2.219   6.567  1.00  0.00     0.032 C 
HETATM   35  C   UNL     1       3.410  -0.123   5.282  1.00  0.00     0.032 C 
ENDBRANCH  31  33
ENDBRANCH  27  29
ENDBRANCH   1  22
TORSDOF 7
ENDMDL
MODEL 9
REMARK VINA RESULT:       0.0     11.255     15.632
REMARK  7 active torsions:
REMARK  status: ('A' for Active; 'I' for Inactive)
REMARK    1  A    between atoms: C_5  and  C_6 
REMARK       I    between atoms: C_6  and  N_8 
REMARK    2  A    between atoms: N_8  and  C_9 
REMARK    3  A    between atoms: C_9  and  C_10 
REMARK       I    between atoms: C_10  and  N_12 
REMARK    4  A    between atoms: N_12  and  C_13 
REMARK    5  A    between atoms: C_17  and  N_18 
REMARK    6  A    between atoms: C_26  and  C_27 
REMARK       I    between atoms: C_27  and  N_29 
REMARK    7  A    between atoms: N_29  and  C_30 
ROOT
HETATM    1  C   UNL     1       5.704  -3.102   4.952  1.00  0.00     0.185 C 
HETATM    2  O   UNL     1       6.316  -3.319   3.600  1.00  0.00    -0.172 OA
HETATM    3  N   UNL     1       4.426  -2.327   5.081  1.00  0.00    -0.360 N 
HETATM    4  H   UNL     1       4.024  -2.185   5.968  1.00  0.00     0.162 HD
ENDROOT
BRANCH   3   5
HETATM    5  C   UNL     1       3.761  -1.769   3.857  1.00  0.00     0.209 C 
BRANCH   5   6
HETATM    6  C   UNL     1       2.946  -2.665   2.972  1.00  0.00     0.173 C 
HETATM    7  O   UNL     1       1.449  -2.628   3.041  1.00  0.00    -0.175 OA
HETATM    8  N   UNL     1       3.630  -3.599   2.017  1.00  0.00    -0.337 N 
HETATM    9  H   UNL     1       4.613  -3.623   1.972  1.00  0.00     0.168 HD
BRANCH   8  10
HETATM   10  C   UNL     1       2.816  -4.495   1.132  1.00  0.00     0.036 A 
HETATM   11  C   UNL     1       2.460  -4.054  -0.257  1.00  0.00     0.029 A 
HETATM   12  C   UNL     1       1.645  -4.950  -1.143  1.00  0.00     0.004 A 
HETATM   13  C   UNL     1       1.187  -6.286  -0.639  1.00  0.00     0.030 A 
HETATM   14  C   UNL     1       1.543  -6.727   0.750  1.00  0.00     0.038 A 
HETATM   15  C   UNL     1       2.357  -5.831   1.635  1.00  0.00     0.059 A 
BRANCH  14  16
HETATM   16  N   UNL     1       1.084  -8.063   1.253  1.00  0.00    -0.329 N 
HETATM   17  C   UNL     1      -0.339  -8.483   1.470  1.00  0.00     0.131 A 
HETATM   18  C   UNL     1      -0.335  -9.893   1.979  1.00  0.00     0.028 A 
HETATM   19  C   UNL     1       1.092 -10.346   2.077  1.00  0.00     0.089 A 
HETATM   20  C   UNL     1       1.969  -9.216   1.628  1.00  0.00     0.158 A 
HETATM   21  O   UNL     1       3.467  -9.233   1.566  1.00  0.00    -0.177 OA
ENDBRANCH  14  16
ENDBRANCH   8  10
ENDBRANCH   5   6
ENDBRANCH   3   5
BRANCH   1  22
HETATM   22  C   UNL     1       6.369  -3.660   6.175  1.00  0.00     0.018 A 
HETATM   23  C   UNL     1       7.146  -2.756   7.085  1.00  0.00     0.016 A 
HETATM   24  C   UNL     1       7.811  -3.314   8.308  1.00  0.00     0.009 A 
HETATM   25  C   UNL     1       7.700  -4.776   8.621  1.00  0.00    -0.047 A 
HETATM   26  C   UNL     1       8.365  -5.334   9.844  1.00  0.00     0.049 C 
HETATM   27  C   UNL     1       6.923  -5.681   7.711  1.00  0.00     0.024 A 
HETATM   28  C   UNL     1       6.258  -5.123   6.488  1.00  0.00     0.032 A 
BRANCH  27  29
HETATM   29  C   UNL     1       6.812  -7.144   8.024  1.00  0.00     0.185 C 
HETATM   30  O   UNL     1       5.696  -7.642   8.894  1.00  0.00    -0.172 OA
HETATM   31  N   UNL     1       7.816  -8.108   7.467  1.00  0.00    -0.364 N 
HETATM   32  H   UNL     1       8.548  -7.782   6.897  1.00  0.00     0.162 HD
BRANCH  31  33
HETATM   33  C   UNL     1       7.705  -9.571   7.780  1.00  0.00     0.075 C 
HETATM   34  C   UNL     1       8.395 -10.134   8.987  1.00  0.00     0.032 C 
HETATM   35  C   UNL     1       6.903 -10.471   6.887  1.00  0.00     0.032 C 
ENDBRANCH  31  33
ENDBRANCH  27  29
ENDBRANCH   1  22
TORSDOF 7
ENDMDL
