REMARK  3 active torsions:
REMARK  status: ('A' for Active; 'I' for Inactive)
REMARK    1  A    between atoms: C_8  and  N_9 
REMARK       I    between atoms: N_9  and  C_10 
REMARK    2  A    between atoms: C_10  and  C_12 
REMARK    3  A    between atoms: C_15  and  N_16 
ROOT
HETATM    1  N   UNL     1       1.500   2.598   0.000  1.00  0.00    -0.333 N 
HETATM    2  C   UNL     1       0.750   3.897   0.000  1.00  0.00     0.189 C 
HETATM    3  O   UNL     1      -0.750   3.897   0.000  1.00  0.00    -0.171 OA
HETATM    4  H   UNL     1       2.484   2.598   0.000  1.00  0.00     0.168 HD
ENDROOT
BRANCH   2   5
HETATM    5  C   UNL     1       1.500   5.196   0.000  1.00  0.00     0.018 A 
HETATM    6  C   UNL     1       3.000   5.196   0.000  1.00  0.00     0.018 A 
HETATM    7  C   UNL     1       3.750   6.495   0.000  1.00  0.00     0.030 A 
HETATM    8  C   UNL     1       3.000   7.794   0.000  1.00  0.00     0.025 A 
HETATM    9  C   UNL     1       1.500   7.794   0.000  1.00  0.00     0.030 A 
HETATM   10  C   UNL     1       0.750   6.495   0.000  1.00  0.00     0.018 A 
BRANCH   8  11
HETATM   11  N   UNL     1       3.750   9.093   0.000  1.00  0.00    -0.399 N 
HETATM   12  H   UNL     1       4.734   9.093   0.000  1.00  0.00     0.156 HD
HETATM   13  H   UNL     1       3.258   9.946   0.000  1.00  0.00     0.156 HD
ENDBRANCH   8  11
ENDBRANCH   2   5
BRANCH   1  14
HETATM   14  C   UNL     1       0.750   1.299   0.000  1.00  0.00     0.043 A 
HETATM   15  C   UNL     1       1.500   0.000   0.000  1.00  0.00    -0.035 A 
HETATM   16  C   UNL     1       3.000   0.000   0.000  1.00  0.00     0.050 C 
HETATM   17  C   UNL     1       0.750  -1.299   0.000  1.00  0.00     0.012 A 
HETATM   18  C   UNL     1      -0.750  -1.299   0.000  1.00  0.00     0.043 A 
HETATM   19  C   UNL     1      -1.500   0.000   0.000  1.00  0.00     0.118 A 
HETATM   20  F   UNL     1      -3.000   0.000   0.000  1.00  0.00    -0.206 F 
HETATM   21  C   UNL     1      -0.750   1.299   0.000  1.00  0.00     0.072 A 
ENDBRANCH   1  14
TORSDOF 3
