MODEL 1
REMARK VINA RESULT:      -0.0      0.000      0.000
REMARK  7 active torsions:
REMARK  status: ('A' for Active; 'I' for Inactive)
REMARK       I    between atoms: C_2  and  N_4 
REMARK    1  A    between atoms: N_4  and  C_5 
REMARK    2  A    between atoms: C_8  and  N_9 
REMARK    3  A    between atoms: N_9  and  C_10 
REMARK    4  A    between atoms: C_10  and  C_11 
REMARK    5  A    between atoms: C_14  and  N_15 
REMARK    6  A    between atoms: N_15  and  C_16 
REMARK    7  A    between atoms: C_16  and  C_17 
ROOT
HETATM    1  C   UNL     1      -1.485   4.399  -3.977  1.00  0.00    -0.040 A 
HETATM    2  C   UNL     1      -0.038   4.233  -4.334  1.00  0.00     0.011 A 
HETATM    3  C   UNL     1       0.675   5.310  -5.097  1.00  0.00     0.029 A 
HETATM    4  C   UNL     1      -0.060   6.553  -5.504  1.00  0.00     0.028 A 
HETATM    5  C   UNL     1      -1.507   6.719  -5.146  1.00  0.00     0.029 A 
HETATM    6  C   UNL     1      -2.220   5.642  -4.383  1.00  0.00     0.011 A 
ENDROOT
BRANCH   1   7
HETATM    7  C   UNL     1      -2.197   3.323  -3.213  1.00  0.00     0.158 C 
BRANCH   7   8
HETATM    8  N   UNL     1      -3.148   2.404  -3.922  1.00  0.00    -0.386 N 
HETATM    9  H   UNL     1      -3.904   2.006  -3.434  1.00  0.00     0.160 HD
BRANCH   8  10
HETATM   10  C   UNL     1      -2.946   2.092  -5.375  1.00  0.00     0.028 A 
HETATM   11  C   UNL     1      -1.862   1.144  -5.795  1.00  0.00     0.031 A 
HETATM   12  C   UNL     1      -1.660   0.832  -7.249  1.00  0.00     0.032 A 
HETATM   13  C   UNL     1      -2.542   1.468  -8.282  1.00  0.00     0.033 A 
HETATM   14  C   UNL     1      -3.626   2.416  -7.862  1.00  0.00     0.032 A 
HETATM   15  C   UNL     1      -3.828   2.728  -6.408  1.00  0.00     0.031 A 
BRANCH  13  16
HETATM   16  N   UNL     1      -2.340   1.156  -9.735  1.00  0.00    -0.339 N 
HETATM   17  C   UNL     1      -3.098   0.030 -10.373  1.00  0.00     0.151 C 
HETATM   18  C   UNL     1      -2.896  -0.282 -11.826  1.00  0.00     0.100 C 
HETATM   19  O   UNL     1      -4.057  -0.785  -9.557  1.00  0.00    -0.177 OA
HETATM   20  H   UNL     1      -1.710   1.691 -10.270  1.00  0.00     0.168 HD
ENDBRANCH  13  16
ENDBRANCH   8  10
ENDBRANCH   7   8
ENDBRANCH   1   7
BRANCH   4  21
HETATM   21  N   UNL     1       0.653   7.630  -6.267  1.00  0.00    -0.386 N 
HETATM   22  H   UNL     1       1.003   8.419  -5.794  1.00  0.00     0.160 HD
BRANCH  21  23
HETATM   23  C   UNL     1       0.832   7.504  -7.751  1.00  0.00     0.158 C 
BRANCH  23  24
HETATM   24  C   UNL     1      -0.055   6.585  -8.538  1.00  0.00    -0.041 A 
HETATM   25  C   UNL     1      -1.422   7.038  -8.957  1.00  0.00     0.009 A 
HETATM   26  C   UNL     1      -2.308   6.119  -9.744  1.00  0.00     0.001 A 
HETATM   27  C   UNL     1      -1.827   4.747 -10.113  1.00  0.00     0.000 A 
HETATM   28  C   UNL     1      -0.460   4.294  -9.694  1.00  0.00     0.001 A 
HETATM   29  C   UNL     1       0.426   5.213  -8.907  1.00  0.00     0.009 A 
ENDBRANCH  23  24
ENDBRANCH  21  23
ENDBRANCH   4  21
TORSDOF 7
ENDMDL
MODEL 2
REMARK VINA RESULT:      -0.0      7.524     10.860
REMARK  7 active torsions:
REMARK  status: ('A' for Active; 'I' for Inactive)
REMARK       I    between atoms: C_2  and  N_4 
REMARK    1  A    between atoms: N_4  and  C_5 
REMARK    2  A    between atoms: C_8  and  N_9 
REMARK    3  A    between atoms: N_9  and  C_10 
REMARK    4  A    between atoms: C_10  and  C_11 
REMARK    5  A    between atoms: C_14  and  N_15 
REMARK    6  A    between atoms: N_15  and  C_16 
REMARK    7  A    between atoms: C_16  and  C_17 
ROOT
HETATM    1  C   UNL     1      -1.838   4.116   4.914  1.00  0.00    -0.040 A 
HETATM    2  C   UNL     1      -3.158   3.791   4.279  1.00  0.00     0.011 A 
HETATM    3  C   UNL     1      -4.306   4.748   4.403  1.00  0.00     0.029 A 
HETATM    4  C   UNL     1      -4.135   6.031   5.161  1.00  0.00     0.028 A 
HETATM    5  C   UNL     1      -2.815   6.357   5.795  1.00  0.00     0.029 A 
HETATM    6  C   UNL     1      -1.667   5.399   5.672  1.00  0.00     0.011 A 
ENDROOT
BRANCH   1   7
HETATM    7  C   UNL     1      -0.690   3.159   4.791  1.00  0.00     0.158 C 
BRANCH   7   8
HETATM    8  N   UNL     1       0.430   3.450   3.836  1.00  0.00    -0.386 N 
HETATM    9  H   UNL     1       1.337   3.117   4.025  1.00  0.00     0.160 HD
BRANCH   8  10
HETATM   10  C   UNL     1       0.168   4.248   2.594  1.00  0.00     0.028 A 
HETATM   11  C   UNL     1       0.610   5.680   2.515  1.00  0.00     0.031 A 
HETATM   12  C   UNL     1       0.348   6.478   1.272  1.00  0.00     0.032 A 
HETATM   13  C   UNL     1      -0.356   5.845   0.108  1.00  0.00     0.033 A 
HETATM   14  C   UNL     1      -0.798   4.414   0.187  1.00  0.00     0.032 A 
HETATM   15  C   UNL     1      -0.536   3.615   1.430  1.00  0.00     0.031 A 
BRANCH  13  16
HETATM   16  N   UNL     1      -0.618   6.643  -1.134  1.00  0.00    -0.339 N 
HETATM   17  C   UNL     1       0.425   6.720  -2.210  1.00  0.00     0.151 C 
HETATM   18  C   UNL     1       0.163   7.519  -3.452  1.00  0.00     0.100 C 
HETATM   19  O   UNL     1       1.730   5.999  -2.042  1.00  0.00    -0.177 OA
HETATM   20  H   UNL     1      -1.474   7.116  -1.244  1.00  0.00     0.168 HD
ENDBRANCH  13  16
ENDBRANCH   8  10
ENDBRANCH   7   8
ENDBRANCH   1   7
BRANCH   4  21
HETATM   21  N   UNL     1      -5.283   6.988   5.284  1.00  0.00    -0.386 N 
HETATM   22  H   UNL     1      -5.835   6.992   6.099  1.00  0.00     0.160 HD
BRANCH  21  23
HETATM   23  C   UNL     1      -5.590   7.940   4.165  1.00  0.00     0.158 C 
BRANCH  23  24
HETATM   24  C   UNL     1      -4.540   8.258   3.142  1.00  0.00    -0.041 A 
HETATM   25  C   UNL     1      -4.531   7.536   1.827  1.00  0.00     0.009 A 
HETATM   26  C   UNL     1      -3.482   7.855   0.804  1.00  0.00     0.001 A 
HETATM   27  C   UNL     1      -2.440   8.894   1.096  1.00  0.00     0.000 A 
HETATM   28  C   UNL     1      -2.449   9.615   2.411  1.00  0.00     0.001 A 
HETATM   29  C   UNL     1      -3.499   9.297   3.434  1.00  0.00     0.009 A 
ENDBRANCH  23  24
ENDBRANCH  21  23
ENDBRANCH   4  21
TORSDOF 7
ENDMDL
MODEL 3
REMARK VINA RESULT:      -0.0      6.815      9.325
REMARK  7 active torsions:
REMARK  status: ('A' for Active; 'I' for Inactive)
REMARK       I    between atoms: C_2  and  N_4 
REMARK    1  A    between atoms: N_4  and  C_5 
REMARK    2  A    between atoms: C_8  and  N_9 
REMARK    3  A    between atoms: N_9  and  C_10 
REMARK    4  A    between atoms: C_10  and  C_11 
REMARK    5  A    between atoms: C_14  and  N_15 
REMARK    6  A    between atoms: N_15  and  C_16 
REMARK    7  A    between atoms: C_16  and  C_17 
ROOT
HETATM    1  C   UNL     1      -2.636   5.851  -0.880  1.00  0.00    -0.040 A 
HETATM    2  C   UNL     1      -3.022   5.243  -2.196  1.00  0.00     0.011 A 
HETATM    3  C   UNL     1      -4.050   5.913  -3.059  1.00  0.00     0.029 A 
HETATM    4  C   UNL     1      -4.693   7.191  -2.606  1.00  0.00     0.028 A 
HETATM    5  C   UNL     1      -4.307   7.799  -1.290  1.00  0.00     0.029 A 
HETATM    6  C   UNL     1      -3.279   7.129  -0.427  1.00  0.00     0.011 A 
ENDROOT
BRANCH   1   7
HETATM    7  C   UNL     1      -1.608   5.182  -0.017  1.00  0.00     0.158 C 
BRANCH   7   8
HETATM    8  N   UNL     1      -2.035   4.416   1.201  1.00  0.00    -0.386 N 
HETATM    9  H   UNL     1      -1.429   4.343   1.974  1.00  0.00     0.160 HD
BRANCH   8  10
HETATM   10  C   UNL     1      -3.384   3.762   1.241  1.00  0.00     0.028 A 
HETATM   11  C   UNL     1      -4.491   4.375   2.046  1.00  0.00     0.031 A 
HETATM   12  C   UNL     1      -5.840   3.721   2.087  1.00  0.00     0.032 A 
HETATM   13  C   UNL     1      -6.082   2.453   1.322  1.00  0.00     0.033 A 
HETATM   14  C   UNL     1      -4.975   1.840   0.516  1.00  0.00     0.032 A 
HETATM   15  C   UNL     1      -3.626   2.495   0.476  1.00  0.00     0.031 A 
BRANCH  13  16
HETATM   16  N   UNL     1      -7.431   1.799   1.362  1.00  0.00    -0.339 N 
HETATM   17  C   UNL     1      -7.764   0.833   2.460  1.00  0.00     0.151 C 
HETATM   18  C   UNL     1      -9.113   0.178   2.500  1.00  0.00     0.100 C 
HETATM   19  O   UNL     1      -6.747   0.521   3.518  1.00  0.00    -0.177 OA
HETATM   20  H   UNL     1      -8.099   2.004   0.667  1.00  0.00     0.168 HD
ENDBRANCH  13  16
ENDBRANCH   8  10
ENDBRANCH   7   8
ENDBRANCH   1   7
BRANCH   4  21
HETATM   21  N   UNL     1      -5.721   7.860  -3.469  1.00  0.00    -0.386 N 
HETATM   22  H   UNL     1      -5.461   8.610  -4.052  1.00  0.00     0.160 HD
BRANCH  21  23
HETATM   23  C   UNL     1      -7.144   7.388  -3.443  1.00  0.00     0.158 C 
BRANCH  23  24
HETATM   24  C   UNL     1      -7.648   6.588  -2.279  1.00  0.00    -0.041 A 
HETATM   25  C   UNL     1      -8.087   7.283  -1.024  1.00  0.00     0.009 A 
HETATM   26  C   UNL     1      -8.591   6.482   0.140  1.00  0.00     0.001 A 
HETATM   27  C   UNL     1      -8.655   4.986   0.049  1.00  0.00     0.000 A 
HETATM   28  C   UNL     1      -8.216   4.291  -1.205  1.00  0.00     0.001 A 
HETATM   29  C   UNL     1      -7.712   5.092  -2.369  1.00  0.00     0.009 A 
ENDBRANCH  23  24
ENDBRANCH  21  23
ENDBRANCH   4  21
TORSDOF 7
ENDMDL
MODEL 4
REMARK VINA RESULT:      -0.0     15.073     18.217
REMARK  7 active torsions:
REMARK  status: ('A' for Active; 'I' for Inactive)
REMARK       I    between atoms: C_2  and  N_4 
REMARK    1  A    between atoms: N_4  and  C_5 
REMARK    2  A    between atoms: C_8  and  N_9 
REMARK    3  A    between atoms: N_9  and  C_10 
REMARK    4  A    between atoms: C_10  and  C_11 
REMARK    5  A    between atoms: C_14  and  N_15 
REMARK    6  A    between atoms: N_15  and  C_16 
REMARK    7  A    between atoms: C_16  and  C_17 
ROOT
HETATM    1  C   UNL     1      -3.838  -7.343   5.708  1.00  0.00    -0.040 A 
HETATM    2  C   UNL     1      -4.198  -8.532   4.869  1.00  0.00     0.011 A 
HETATM    3  C   UNL     1      -5.050  -9.626   5.443  1.00  0.00     0.029 A 
HETATM    4  C   UNL     1      -5.540  -9.529   6.857  1.00  0.00     0.028 A 
HETATM    5  C   UNL     1      -5.180  -8.340   7.697  1.00  0.00     0.029 A 
HETATM    6  C   UNL     1      -4.329  -7.246   7.122  1.00  0.00     0.011 A 
ENDROOT
BRANCH   1   7
HETATM    7  C   UNL     1      -2.987  -6.249   5.133  1.00  0.00     0.158 C 
BRANCH   7   8
HETATM    8  N   UNL     1      -3.582  -5.261   4.175  1.00  0.00    -0.386 N 
HETATM    9  H   UNL     1      -3.016  -4.835   3.491  1.00  0.00     0.160 HD
BRANCH   8  10
HETATM   10  C   UNL     1      -5.041  -4.921   4.258  1.00  0.00     0.028 A 
HETATM   11  C   UNL     1      -5.541  -4.023   5.350  1.00  0.00     0.031 A 
HETATM   12  C   UNL     1      -6.999  -3.683   5.433  1.00  0.00     0.032 A 
HETATM   13  C   UNL     1      -7.958  -4.240   4.423  1.00  0.00     0.033 A 
HETATM   14  C   UNL     1      -7.458  -5.138   3.330  1.00  0.00     0.032 A 
HETATM   15  C   UNL     1      -5.999  -5.478   3.247  1.00  0.00     0.031 A 
BRANCH  13  16
HETATM   16  N   UNL     1      -9.417  -3.900   4.506  1.00  0.00    -0.339 N 
HETATM   17  C   UNL     1      -9.962  -2.741   3.725  1.00  0.00     0.151 C 
HETATM   18  C   UNL     1     -11.420  -2.401   3.808  1.00  0.00     0.100 C 
HETATM   19  O   UNL     1      -9.048  -1.922   2.862  1.00  0.00    -0.177 OA
HETATM   20  H   UNL     1     -10.016  -4.438   5.072  1.00  0.00     0.168 HD
ENDBRANCH  13  16
ENDBRANCH   8  10
ENDBRANCH   7   8
ENDBRANCH   1   7
BRANCH   4  21
HETATM   21  N   UNL     1      -6.391 -10.623   7.432  1.00  0.00    -0.386 N 
HETATM   22  H   UNL     1      -5.970 -11.440   7.784  1.00  0.00     0.160 HD
BRANCH  21  23
HETATM   23  C   UNL     1      -7.883 -10.470   7.470  1.00  0.00     0.158 C 
BRANCH  23  24
HETATM   24  C   UNL     1      -8.560  -9.487   6.562  1.00  0.00    -0.041 A 
HETATM   25  C   UNL     1      -8.941  -8.130   7.076  1.00  0.00     0.009 A 
HETATM   26  C   UNL     1      -9.618  -7.147   6.168  1.00  0.00     0.001 A 
HETATM   27  C   UNL     1      -9.914  -7.521   4.746  1.00  0.00     0.000 A 
HETATM   28  C   UNL     1      -9.534  -8.878   4.232  1.00  0.00     0.001 A 
HETATM   29  C   UNL     1      -8.857  -9.861   5.140  1.00  0.00     0.009 A 
ENDBRANCH  23  24
ENDBRANCH  21  23
ENDBRANCH   4  21
TORSDOF 7
ENDMDL
MODEL 5
REMARK VINA RESULT:      -0.0      8.080     10.238
REMARK  7 active torsions:
REMARK  status: ('A' for Active; 'I' for Inactive)
REMARK       I    between atoms: C_2  and  N_4 
REMARK    1  A    between atoms: N_4  and  C_5 
REMARK    2  A    between atoms: C_8  and  N_9 
REMARK    3  A    between atoms: N_9  and  C_10 
REMARK    4  A    between atoms: C_10  and  C_11 
REMARK    5  A    between atoms: C_14  and  N_15 
REMARK    6  A    between atoms: N_15  and  C_16 
REMARK    7  A    between atoms: C_16  and  C_17 
ROOT
HETATM    1  C   UNL     1       6.589  -4.294  -7.384  1.00  0.00    -0.040 A 
HETATM    2  C   UNL     1       5.608  -5.123  -8.160  1.00  0.00     0.011 A 
HETATM    3  C   UNL     1       5.732  -5.230  -9.651  1.00  0.00     0.029 A 
HETATM    4  C   UNL     1       6.835  -4.509 -10.366  1.00  0.00     0.028 A 
HETATM    5  C   UNL     1       7.816  -3.680  -9.590  1.00  0.00     0.029 A 
HETATM    6  C   UNL     1       7.692  -3.573  -8.099  1.00  0.00     0.011 A 
ENDROOT
BRANCH   1   7
HETATM    7  C   UNL     1       6.465  -4.187  -5.893  1.00  0.00     0.158 C 
BRANCH   7   8
HETATM    8  N   UNL     1       5.905  -2.940  -5.275  1.00  0.00    -0.386 N 
HETATM    9  H   UNL     1       6.186  -2.670  -4.371  1.00  0.00     0.160 HD
BRANCH   8  10
HETATM   10  C   UNL     1       4.916  -2.106  -6.033  1.00  0.00     0.028 A 
HETATM   11  C   UNL     1       3.493  -2.563  -6.163  1.00  0.00     0.031 A 
HETATM   12  C   UNL     1       2.503  -1.728  -6.921  1.00  0.00     0.032 A 
HETATM   13  C   UNL     1       2.937  -0.438  -7.550  1.00  0.00     0.033 A 
HETATM   14  C   UNL     1       4.360   0.019  -7.421  1.00  0.00     0.032 A 
HETATM   15  C   UNL     1       5.349  -0.815  -6.662  1.00  0.00     0.031 A 
BRANCH  13  16
HETATM   16  N   UNL     1       1.948   0.397  -8.309  1.00  0.00    -0.339 N 
HETATM   17  C   UNL     1       1.191   1.486  -7.608  1.00  0.00     0.151 C 
HETATM   18  C   UNL     1       0.202   2.320  -8.366  1.00  0.00     0.100 C 
HETATM   19  O   UNL     1       1.424   1.740  -6.148  1.00  0.00    -0.177 OA
HETATM   20  H   UNL     1       1.796   0.229  -9.267  1.00  0.00     0.168 HD
ENDBRANCH  13  16
ENDBRANCH   8  10
ENDBRANCH   7   8
ENDBRANCH   1   7
BRANCH   4  21
HETATM   21  N   UNL     1       6.959  -4.616 -11.857  1.00  0.00    -0.386 N 
HETATM   22  H   UNL     1       7.601  -5.249 -12.254  1.00  0.00     0.160 HD
BRANCH  21  23
HETATM   23  C   UNL     1       6.104  -3.759 -12.744  1.00  0.00     0.158 C 
BRANCH  23  24
HETATM   24  C   UNL     1       5.487  -2.503 -12.205  1.00  0.00    -0.041 A 
HETATM   25  C   UNL     1       4.061  -2.507 -11.741  1.00  0.00     0.009 A 
HETATM   26  C   UNL     1       3.444  -1.251 -11.202  1.00  0.00     0.001 A 
HETATM   27  C   UNL     1       4.253   0.010 -11.126  1.00  0.00     0.000 A 
HETATM   28  C   UNL     1       5.680   0.014 -11.590  1.00  0.00     0.001 A 
HETATM   29  C   UNL     1       6.297  -1.242 -12.129  1.00  0.00     0.009 A 
ENDBRANCH  23  24
ENDBRANCH  21  23
ENDBRANCH   4  21
TORSDOF 7
ENDMDL
MODEL 6
REMARK VINA RESULT:      -0.0      5.257      7.215
REMARK  7 active torsions:
REMARK  status: ('A' for Active; 'I' for Inactive)
REMARK       I    between atoms: C_2  and  N_4 
REMARK    1  A    between atoms: N_4  and  C_5 
REMARK    2  A    between atoms: C_8  and  N_9 
REMARK    3  A    between atoms: N_9  and  C_10 
REMARK    4  A    between atoms: C_10  and  C_11 
REMARK    5  A    between atoms: C_14  and  N_15 
REMARK    6  A    between atoms: N_15  and  C_16 
REMARK    7  A    between atoms: C_16  and  C_17 
ROOT
HETATM    1  C   UNL     1      -4.046   1.501  -0.839  1.00  0.00    -0.040 A 
HETATM    2  C   UNL     1      -4.076   2.915  -1.339  1.00  0.00     0.011 A 
HETATM    3  C   UNL     1      -5.326   3.732  -1.203  1.00  0.00     0.029 A 
HETATM    4  C   UNL     1      -6.547   3.135  -0.568  1.00  0.00     0.028 A 
HETATM    5  C   UNL     1      -6.517   1.721  -0.068  1.00  0.00     0.029 A 
HETATM    6  C   UNL     1      -5.267   0.904  -0.204  1.00  0.00     0.011 A 
ENDROOT
BRANCH   1   7
HETATM    7  C   UNL     1      -2.795   0.684  -0.975  1.00  0.00     0.158 C 
BRANCH   7   8
HETATM    8  N   UNL     1      -2.704  -0.378  -2.030  1.00  0.00    -0.386 N 
HETATM    9  H   UNL     1      -2.137  -1.170  -1.885  1.00  0.00     0.160 HD
BRANCH   8  10
HETATM   10  C   UNL     1      -3.477  -0.234  -3.308  1.00  0.00     0.028 A 
HETATM   11  C   UNL     1      -3.016   0.732  -4.358  1.00  0.00     0.031 A 
HETATM   12  C   UNL     1      -3.789   0.876  -5.636  1.00  0.00     0.032 A 
HETATM   13  C   UNL     1      -5.022   0.053  -5.863  1.00  0.00     0.033 A 
HETATM   14  C   UNL     1      -5.483  -0.913  -4.813  1.00  0.00     0.032 A 
HETATM   15  C   UNL     1      -4.710  -1.057  -3.535  1.00  0.00     0.031 A 
BRANCH  13  16
HETATM   16  N   UNL     1      -5.795   0.197  -7.141  1.00  0.00    -0.339 N 
HETATM   17  C   UNL     1      -5.518  -0.723  -8.292  1.00  0.00     0.151 C 
HETATM   18  C   UNL     1      -6.291  -0.579  -9.570  1.00  0.00     0.100 C 
HETATM   19  O   UNL     1      -4.469  -1.788  -8.166  1.00  0.00    -0.177 OA
HETATM   20  H   UNL     1      -6.484   0.896  -7.223  1.00  0.00     0.168 HD
ENDBRANCH  13  16
ENDBRANCH   8  10
ENDBRANCH   7   8
ENDBRANCH   1   7
BRANCH   4  21
HETATM   21  N   UNL     1      -7.798   3.952  -0.432  1.00  0.00    -0.386 N 
HETATM   22  H   UNL     1      -8.000   4.404   0.419  1.00  0.00     0.160 HD
BRANCH  21  23
HETATM   23  C   UNL     1      -8.739   4.081  -1.593  1.00  0.00     0.158 C 
BRANCH  23  24
HETATM   24  C   UNL     1      -8.688   3.086  -2.714  1.00  0.00    -0.041 A 
HETATM   25  C   UNL     1      -7.923   3.404  -3.964  1.00  0.00     0.009 A 
HETATM   26  C   UNL     1      -7.871   2.408  -5.086  1.00  0.00     0.001 A 
HETATM   27  C   UNL     1      -8.585   1.095  -4.956  1.00  0.00     0.000 A 
HETATM   28  C   UNL     1      -9.350   0.777  -3.706  1.00  0.00     0.001 A 
HETATM   29  C   UNL     1      -9.401   1.772  -2.585  1.00  0.00     0.009 A 
ENDBRANCH  23  24
ENDBRANCH  21  23
ENDBRANCH   4  21
TORSDOF 7
ENDMDL
MODEL 7
REMARK VINA RESULT:      -0.0      9.664     13.049
REMARK  7 active torsions:
REMARK  status: ('A' for Active; 'I' for Inactive)
REMARK       I    between atoms: C_2  and  N_4 
REMARK    1  A    between atoms: N_4  and  C_5 
REMARK    2  A    between atoms: C_8  and  N_9 
REMARK    3  A    between atoms: N_9  and  C_10 
REMARK    4  A    between atoms: C_10  and  C_11 
REMARK    5  A    between atoms: C_14  and  N_15 
REMARK    6  A    between atoms: N_15  and  C_16 
REMARK    7  A    between atoms: C_16  and  C_17 
ROOT
HETATM    1  C   UNL     1      -1.378   4.091   2.248  1.00  0.00    -0.040 A 
HETATM    2  C   UNL     1      -1.311   2.938   1.291  1.00  0.00     0.011 A 
HETATM    3  C   UNL     1       0.019   2.435   0.815  1.00  0.00     0.029 A 
HETATM    4  C   UNL     1       1.283   3.085   1.296  1.00  0.00     0.028 A 
HETATM    5  C   UNL     1       1.215   4.238   2.253  1.00  0.00     0.029 A 
HETATM    6  C   UNL     1      -0.115   4.741   2.729  1.00  0.00     0.011 A 
ENDROOT
BRANCH   1   7
HETATM    7  C   UNL     1      -2.709   4.594   2.725  1.00  0.00     0.158 C 
BRANCH   7   8
HETATM    8  N   UNL     1      -3.476   3.824   3.758  1.00  0.00    -0.386 N 
HETATM    9  H   UNL     1      -4.459   3.866   3.775  1.00  0.00     0.160 HD
BRANCH   8  10
HETATM   10  C   UNL     1      -2.744   2.988   4.766  1.00  0.00     0.028 A 
HETATM   11  C   UNL     1      -2.032   3.646   5.911  1.00  0.00     0.031 A 
HETATM   12  C   UNL     1      -1.301   2.810   6.919  1.00  0.00     0.032 A 
HETATM   13  C   UNL     1      -1.281   1.316   6.783  1.00  0.00     0.033 A 
HETATM   14  C   UNL     1      -1.993   0.659   5.638  1.00  0.00     0.032 A 
HETATM   15  C   UNL     1      -2.725   1.494   4.630  1.00  0.00     0.031 A 
BRANCH  13  16
HETATM   16  N   UNL     1      -0.550   0.481   7.791  1.00  0.00    -0.339 N 
HETATM   17  C   UNL     1      -1.281  -0.074   8.977  1.00  0.00     0.151 C 
HETATM   18  C   UNL     1      -0.549  -0.910   9.985  1.00  0.00     0.100 C 
HETATM   19  O   UNL     1      -2.743   0.206   9.155  1.00  0.00    -0.177 OA
HETATM   20  H   UNL     1       0.411   0.297   7.674  1.00  0.00     0.168 HD
ENDBRANCH  13  16
ENDBRANCH   8  10
ENDBRANCH   7   8
ENDBRANCH   1   7
BRANCH   4  21
HETATM   21  N   UNL     1       2.613   2.582   0.820  1.00  0.00    -0.386 N 
HETATM   22  H   UNL     1       2.964   2.871  -0.054  1.00  0.00     0.160 HD
BRANCH  21  23
HETATM   23  C   UNL     1       3.408   1.639   1.674  1.00  0.00     0.158 C 
BRANCH  23  24
HETATM   24  C   UNL     1       2.729   0.854   2.756  1.00  0.00    -0.041 A 
HETATM   25  C   UNL     1       2.773   1.339   4.175  1.00  0.00     0.009 A 
HETATM   26  C   UNL     1       2.094   0.554   5.258  1.00  0.00     0.001 A 
HETATM   27  C   UNL     1       1.370  -0.716   4.922  1.00  0.00     0.000 A 
HETATM   28  C   UNL     1       1.326  -1.201   3.503  1.00  0.00     0.001 A 
HETATM   29  C   UNL     1       2.005  -0.416   2.421  1.00  0.00     0.009 A 
ENDBRANCH  23  24
ENDBRANCH  21  23
ENDBRANCH   4  21
TORSDOF 7
ENDMDL
MODEL 8
REMARK VINA RESULT:      -0.0      5.744      7.081
REMARK  7 active torsions:
REMARK  status: ('A' for Active; 'I' for Inactive)
REMARK       I    between atoms: C_2  and  N_4 
REMARK    1  A    between atoms: N_4  and  C_5 
REMARK    2  A    between atoms: C_8  and  N_9 
REMARK    3  A    between atoms: N_9  and  C_10 
REMARK    4  A    between atoms: C_10  and  C_11 
REMARK    5  A    between atoms: C_14  and  N_15 
REMARK    6  A    between atoms: N_15  and  C_16 
REMARK    7  A    between atoms: C_16  and  C_17 
ROOT
HETATM    1  C   UNL     1       5.976   3.143  -2.076  1.00  0.00    -0.040 A 
HETATM    2  C   UNL     1       6.985   2.312  -2.812  1.00  0.00     0.011 A 
HETATM    3  C   UNL     1       7.617   2.837  -4.067  1.00  0.00     0.029 A 
HETATM    4  C   UNL     1       7.242   4.194  -4.585  1.00  0.00     0.028 A 
HETATM    5  C   UNL     1       6.234   5.025  -3.849  1.00  0.00     0.029 A 
HETATM    6  C   UNL     1       5.601   4.500  -2.594  1.00  0.00     0.011 A 
ENDROOT
BRANCH   1   7
HETATM    7  C   UNL     1       5.344   2.618  -0.822  1.00  0.00     0.158 C 
BRANCH   7   8
HETATM    8  N   UNL     1       3.939   2.094  -0.853  1.00  0.00    -0.386 N 
HETATM    9  H   UNL     1       3.374   2.147  -0.048  1.00  0.00     0.160 HD
BRANCH   8  10
HETATM   10  C   UNL     1       3.392   1.487  -2.112  1.00  0.00     0.028 A 
HETATM   11  C   UNL     1       2.431   2.263  -2.962  1.00  0.00     0.031 A 
HETATM   12  C   UNL     1       1.885   1.657  -4.221  1.00  0.00     0.032 A 
HETATM   13  C   UNL     1       2.300   0.274  -4.629  1.00  0.00     0.033 A 
HETATM   14  C   UNL     1       3.262  -0.502  -3.778  1.00  0.00     0.032 A 
HETATM   15  C   UNL     1       3.808   0.105  -2.520  1.00  0.00     0.031 A 
BRANCH  13  16
HETATM   16  N   UNL     1       1.754  -0.332  -5.887  1.00  0.00    -0.339 N 
HETATM   17  C   UNL     1       0.475  -1.115  -5.849  1.00  0.00     0.151 C 
HETATM   18  C   UNL     1      -0.071  -1.722  -7.108  1.00  0.00     0.100 C 
HETATM   19  O   UNL     1      -0.257  -1.292  -4.552  1.00  0.00    -0.177 OA
HETATM   20  H   UNL     1       2.235  -0.215  -6.739  1.00  0.00     0.168 HD
ENDBRANCH  13  16
ENDBRANCH   8  10
ENDBRANCH   7   8
ENDBRANCH   1   7
BRANCH   4  21
HETATM   21  N   UNL     1       7.875   4.719  -5.839  1.00  0.00    -0.386 N 
HETATM   22  H   UNL     1       8.630   5.349  -5.783  1.00  0.00     0.160 HD
BRANCH  21  23
HETATM   23  C   UNL     1       7.358   4.284  -7.179  1.00  0.00     0.158 C 
BRANCH  23  24
HETATM   24  C   UNL     1       5.977   3.711  -7.300  1.00  0.00    -0.041 A 
HETATM   25  C   UNL     1       5.782   2.224  -7.331  1.00  0.00     0.009 A 
HETATM   26  C   UNL     1       4.401   1.651  -7.452  1.00  0.00     0.001 A 
HETATM   27  C   UNL     1       3.215   2.565  -7.542  1.00  0.00     0.000 A 
HETATM   28  C   UNL     1       3.410   4.052  -7.511  1.00  0.00     0.001 A 
HETATM   29  C   UNL     1       4.791   4.625  -7.390  1.00  0.00     0.009 A 
ENDBRANCH  23  24
ENDBRANCH  21  23
ENDBRANCH   4  21
TORSDOF 7
ENDMDL
MODEL 9
REMARK VINA RESULT:      -0.0      8.303     11.058
REMARK  7 active torsions:
REMARK  status: ('A' for Active; 'I' for Inactive)
REMARK       I    between atoms: C_2  and  N_4 
REMARK    1  A    between atoms: N_4  and  C_5 
REMARK    2  A    between atoms: C_8  and  N_9 
REMARK    3  A    between atoms: N_9  and  C_10 
REMARK    4  A    between atoms: C_10  and  C_11 
REMARK    5  A    between atoms: C_14  and  N_15 
REMARK    6  A    between atoms: N_15  and  C_16 
REMARK    7  A    between atoms: C_16  and  C_17 
ROOT
HETATM    1  C   UNL     1       4.564  -1.581   1.146  1.00  0.00    -0.040 A 
HETATM    2  C   UNL     1       5.795  -0.790   1.475  1.00  0.00     0.011 A 
HETATM    3  C   UNL     1       6.557  -0.098   0.383  1.00  0.00     0.029 A 
HETATM    4  C   UNL     1       6.087  -0.198  -1.038  1.00  0.00     0.028 A 
HETATM    5  C   UNL     1       4.856  -0.989  -1.367  1.00  0.00     0.029 A 
HETATM    6  C   UNL     1       4.094  -1.681  -0.275  1.00  0.00     0.011 A 
ENDROOT
BRANCH   1   7
HETATM    7  C   UNL     1       3.802  -2.272   2.238  1.00  0.00     0.158 C 
BRANCH   7   8
HETATM    8  N   UNL     1       2.513  -1.690   2.737  1.00  0.00    -0.386 N 
HETATM    9  H   UNL     1       1.816  -2.281   3.105  1.00  0.00     0.160 HD
BRANCH   8  10
HETATM   10  C   UNL     1       2.285  -0.209   2.675  1.00  0.00     0.028 A 
HETATM   11  C   UNL     1       2.962   0.695   3.662  1.00  0.00     0.031 A 
HETATM   12  C   UNL     1       2.734   2.177   3.600  1.00  0.00     0.032 A 
HETATM   13  C   UNL     1       1.828   2.753   2.553  1.00  0.00     0.033 A 
HETATM   14  C   UNL     1       1.151   1.849   1.566  1.00  0.00     0.032 A 
HETATM   15  C   UNL     1       1.379   0.367   1.628  1.00  0.00     0.031 A 
BRANCH  13  16
HETATM   16  N   UNL     1       1.600   4.235   2.491  1.00  0.00    -0.339 N 
HETATM   17  C   UNL     1       0.433   4.844   3.210  1.00  0.00     0.151 C 
HETATM   18  C   UNL     1       0.205   6.325   3.149  1.00  0.00     0.100 C 
HETATM   19  O   UNL     1      -0.505   3.972   3.991  1.00  0.00    -0.177 OA
HETATM   20  H   UNL     1       2.217   4.807   1.979  1.00  0.00     0.168 HD
ENDBRANCH  13  16
ENDBRANCH   8  10
ENDBRANCH   7   8
ENDBRANCH   1   7
BRANCH   4  21
HETATM   21  N   UNL     1       6.849   0.493  -2.130  1.00  0.00    -0.386 N 
HETATM   22  H   UNL     1       7.488  -0.014  -2.681  1.00  0.00     0.160 HD
BRANCH  21  23
HETATM   23  C   UNL     1       6.637   1.956  -2.382  1.00  0.00     0.158 C 
BRANCH  23  24
HETATM   24  C   UNL     1       5.385   2.627  -1.898  1.00  0.00    -0.041 A 
HETATM   25  C   UNL     1       4.123   2.528  -2.702  1.00  0.00     0.009 A 
HETATM   26  C   UNL     1       2.871   3.198  -2.218  1.00  0.00     0.001 A 
HETATM   27  C   UNL     1       2.882   3.968  -0.931  1.00  0.00     0.000 A 
HETATM   28  C   UNL     1       4.145   4.068  -0.127  1.00  0.00     0.001 A 
HETATM   29  C   UNL     1       5.396   3.397  -0.611  1.00  0.00     0.009 A 
ENDBRANCH  23  24
ENDBRANCH  21  23
ENDBRANCH   4  21
TORSDOF 7
ENDMDL
