MODEL 1
REMARK VINA RESULT:      -6.9      0.000      0.000
REMARK  5 active torsions:
REMARK  status: ('A' for Active; 'I' for Inactive)
REMARK    1  A    between atoms: C_2  and  N_5 
REMARK    2  A    between atoms: C_7  and  C_8 
REMARK       I    between atoms: C_8  and  N_10 
REMARK    3  A    between atoms: N_10  and  C_11 
REMARK    4  A    between atoms: C_11  and  C_12 
REMARK    5  A    between atoms: C_12  and  C_13 
ROOT
HETATM    1  N   UNL     1     -12.780  13.717  71.250  1.00  0.00    -0.328 N 
HETATM    2  C   UNL     1     -12.855  12.302  71.743  1.00  0.00     0.100 A 
HETATM    3  C   UNL     1     -12.404  11.176  70.861  1.00  0.00     0.044 A 
HETATM    4  C   UNL     1     -11.879  11.464  69.486  1.00  0.00    -0.006 A 
HETATM    5  C   UNL     1     -11.429  10.338  68.603  1.00  0.00     0.013 A 
HETATM    6  C   UNL     1     -10.903  10.626  67.228  1.00  0.00     0.001 A 
HETATM    7  C   UNL     1     -10.829  12.041  66.736  1.00  0.00     0.001 A 
HETATM    8  C   UNL     1     -11.279  13.167  67.618  1.00  0.00     0.016 A 
HETATM    9  C   UNL     1     -11.805  12.879  68.993  1.00  0.00     0.025 A 
HETATM   10  C   UNL     1     -12.255  14.005  69.875  1.00  0.00     0.141 A 
HETATM   11  O   UNL     1     -12.181  15.420  69.382  1.00  0.00    -0.394 OA
ENDROOT
BRANCH   3  12
HETATM   12  C   UNL     1     -12.479   9.761  71.354  1.00  0.00     0.187 C 
HETATM   13  O   UNL     1     -13.781   9.018  71.306  1.00  0.00    -0.172 OA
HETATM   14  N   UNL     1     -11.251   9.089  71.894  1.00  0.00    -0.367 N 
HETATM   15  H   UNL     1     -10.396   9.577  71.925  1.00  0.00     0.161 HD
BRANCH  14  16
HETATM   16  C   UNL     1     -11.326   7.674  72.387  1.00  0.00     0.126 C 
BRANCH  16  17
HETATM   17  C   UNL     1     -10.636   6.579  71.629  1.00  0.00     0.058 C 
BRANCH  17  18
HETATM   18  C   UNL     1     -10.336   6.750  70.169  1.00  0.00    -0.057 A 
HETATM   19  C   UNL     1      -9.081   7.449  69.738  1.00  0.00     0.007 A 
HETATM   20  C   UNL     1      -8.781   7.620  68.279  1.00  0.00     0.001 A 
HETATM   21  C   UNL     1      -9.737   7.092  67.250  1.00  0.00     0.000 A 
HETATM   22  C   UNL     1     -10.992   6.393  67.681  1.00  0.00     0.001 A 
HETATM   23  C   UNL     1     -11.292   6.222  69.141  1.00  0.00     0.007 A 
ENDBRANCH  17  18
ENDBRANCH  16  17
ENDBRANCH  14  16
ENDBRANCH   3  12
BRANCH   1  24
HETATM   24  C   UNL     1     -13.231  14.843  72.133  1.00  0.00     0.030 C 
HETATM   25  C   UNL     1     -14.645  14.634  71.678  1.00  0.00     0.049 C 
HETATM   26  C   UNL     1     -11.817  15.052  72.587  1.00  0.00     0.318 C 
HETATM   27  C   UNL     1     -13.681  15.969  73.015  1.00  0.00     0.038 C 
ENDBRANCH   1  24
TORSDOF 5
ENDMDL
MODEL 2
REMARK VINA RESULT:      -6.7      1.758      4.383
REMARK  5 active torsions:
REMARK  status: ('A' for Active; 'I' for Inactive)
REMARK    1  A    between atoms: C_2  and  N_5 
REMARK    2  A    between atoms: C_7  and  C_8 
REMARK       I    between atoms: C_8  and  N_10 
REMARK    3  A    between atoms: N_10  and  C_11 
REMARK    4  A    between atoms: C_11  and  C_12 
REMARK    5  A    between atoms: C_12  and  C_13 
ROOT
HETATM    1  N   UNL     1     -11.346  12.769  67.869  1.00  0.00    -0.328 N 
HETATM    2  C   UNL     1     -11.521  11.512  68.667  1.00  0.00     0.100 A 
HETATM    3  C   UNL     1     -12.070  11.579  70.062  1.00  0.00     0.044 A 
HETATM    4  C   UNL     1     -12.444  12.904  70.657  1.00  0.00    -0.006 A 
HETATM    5  C   UNL     1     -12.993  12.971  72.051  1.00  0.00     0.013 A 
HETATM    6  C   UNL     1     -13.367  14.296  72.647  1.00  0.00     0.001 A 
HETATM    7  C   UNL     1     -13.192  15.554  71.848  1.00  0.00     0.001 A 
HETATM    8  C   UNL     1     -12.643  15.486  70.454  1.00  0.00     0.016 A 
HETATM    9  C   UNL     1     -12.269  14.161  69.858  1.00  0.00     0.025 A 
HETATM   10  C   UNL     1     -11.720  14.094  68.464  1.00  0.00     0.141 A 
HETATM   11  O   UNL     1     -11.546  15.351  67.665  1.00  0.00    -0.394 OA
ENDROOT
BRANCH   3  12
HETATM   12  C   UNL     1     -12.245  10.322  70.861  1.00  0.00     0.187 C 
HETATM   13  O   UNL     1     -11.060   9.683  71.522  1.00  0.00    -0.172 OA
HETATM   14  N   UNL     1     -13.604   9.703  70.998  1.00  0.00    -0.367 N 
HETATM   15  H   UNL     1     -14.382  10.122  70.564  1.00  0.00     0.161 HD
BRANCH  14  16
HETATM   16  C   UNL     1     -13.779   8.446  71.797  1.00  0.00     0.126 C 
BRANCH  16  17
HETATM   17  C   UNL     1     -13.574   7.110  71.147  1.00  0.00     0.058 C 
BRANCH  17  18
HETATM   18  C   UNL     1     -12.201   6.511  71.080  1.00  0.00    -0.057 A 
HETATM   19  C   UNL     1     -11.493   6.403  69.761  1.00  0.00     0.007 A 
HETATM   20  C   UNL     1     -10.120   5.804  69.694  1.00  0.00     0.001 A 
HETATM   21  C   UNL     1      -9.453   5.313  70.945  1.00  0.00     0.000 A 
HETATM   22  C   UNL     1     -10.161   5.421  72.263  1.00  0.00     0.001 A 
HETATM   23  C   UNL     1     -11.535   6.020  72.331  1.00  0.00     0.007 A 
ENDBRANCH  17  18
ENDBRANCH  16  17
ENDBRANCH  14  16
ENDBRANCH   3  12
BRANCH   1  24
HETATM   24  C   UNL     1     -10.797  12.702  66.474  1.00  0.00     0.030 C 
HETATM   25  C   UNL     1      -9.402  12.682  67.024  1.00  0.00     0.049 C 
HETATM   26  C   UNL     1     -12.193  12.721  65.924  1.00  0.00     0.318 C 
HETATM   27  C   UNL     1     -10.249  12.634  65.080  1.00  0.00     0.038 C 
ENDBRANCH   1  24
TORSDOF 5
ENDMDL
MODEL 3
REMARK VINA RESULT:      -6.6      2.562      4.926
REMARK  5 active torsions:
REMARK  status: ('A' for Active; 'I' for Inactive)
REMARK    1  A    between atoms: C_2  and  N_5 
REMARK    2  A    between atoms: C_7  and  C_8 
REMARK       I    between atoms: C_8  and  N_10 
REMARK    3  A    between atoms: N_10  and  C_11 
REMARK    4  A    between atoms: C_11  and  C_12 
REMARK    5  A    between atoms: C_12  and  C_13 
ROOT
HETATM    1  N   UNL     1      -9.990  15.252  68.017  1.00  0.00    -0.328 N 
HETATM    2  C   UNL     1     -10.020  13.754  67.943  1.00  0.00     0.100 A 
HETATM    3  C   UNL     1     -10.876  12.973  68.895  1.00  0.00     0.044 A 
HETATM    4  C   UNL     1     -11.703  13.690  69.921  1.00  0.00    -0.006 A 
HETATM    5  C   UNL     1     -12.559  12.909  70.873  1.00  0.00     0.013 A 
HETATM    6  C   UNL     1     -13.386  13.626  71.899  1.00  0.00     0.001 A 
HETATM    7  C   UNL     1     -13.356  15.124  71.973  1.00  0.00     0.001 A 
HETATM    8  C   UNL     1     -12.500  15.905  71.021  1.00  0.00     0.016 A 
HETATM    9  C   UNL     1     -11.673  15.188  69.995  1.00  0.00     0.025 A 
HETATM   10  C   UNL     1     -10.817  15.969  69.043  1.00  0.00     0.141 A 
HETATM   11  O   UNL     1     -10.787  17.467  69.117  1.00  0.00    -0.394 OA
ENDROOT
BRANCH   3  12
HETATM   12  C   UNL     1     -10.906  11.475  68.821  1.00  0.00     0.187 C 
HETATM   13  O   UNL     1     -12.002  10.783  68.067  1.00  0.00    -0.172 OA
HETATM   14  N   UNL     1      -9.840  10.669  69.502  1.00  0.00    -0.367 N 
HETATM   15  H   UNL     1      -9.120  11.123  69.998  1.00  0.00     0.161 HD
BRANCH  14  16
HETATM   16  C   UNL     1      -9.869   9.171  69.429  1.00  0.00     0.126 C 
BRANCH  16  17
HETATM   17  C   UNL     1     -10.217   8.367  70.646  1.00  0.00     0.058 C 
BRANCH  17  18
HETATM   18  C   UNL     1     -11.641   8.287  71.111  1.00  0.00    -0.057 A 
HETATM   19  C   UNL     1     -12.399   6.999  70.987  1.00  0.00     0.007 A 
HETATM   20  C   UNL     1     -13.823   6.919  71.452  1.00  0.00     0.001 A 
HETATM   21  C   UNL     1     -14.488   8.128  72.041  1.00  0.00     0.000 A 
HETATM   22  C   UNL     1     -13.730   9.416  72.165  1.00  0.00     0.001 A 
HETATM   23  C   UNL     1     -12.306   9.496  71.701  1.00  0.00     0.007 A 
ENDBRANCH  17  18
ENDBRANCH  16  17
ENDBRANCH  14  16
ENDBRANCH   3  12
BRANCH   1  24
HETATM   24  C   UNL     1      -9.134  16.033  67.065  1.00  0.00     0.030 C 
HETATM   25  C   UNL     1      -7.992  15.965  68.035  1.00  0.00     0.049 C 
HETATM   26  C   UNL     1     -10.275  16.101  66.094  1.00  0.00     0.318 C 
HETATM   27  C   UNL     1      -8.277  16.814  66.112  1.00  0.00     0.038 C 
ENDBRANCH   1  24
TORSDOF 5
ENDMDL
MODEL 4
REMARK VINA RESULT:      -6.5      3.506      5.232
REMARK  5 active torsions:
REMARK  status: ('A' for Active; 'I' for Inactive)
REMARK    1  A    between atoms: C_2  and  N_5 
REMARK    2  A    between atoms: C_7  and  C_8 
REMARK       I    between atoms: C_8  and  N_10 
REMARK    3  A    between atoms: N_10  and  C_11 
REMARK    4  A    between atoms: C_11  and  C_12 
REMARK    5  A    between atoms: C_12  and  C_13 
ROOT
HETATM    1  N   UNL     1      -9.338  17.336  68.137  1.00  0.00    -0.328 N 
HETATM    2  C   UNL     1     -10.218  16.760  69.206  1.00  0.00     0.100 A 
HETATM    3  C   UNL     1     -11.152  15.632  68.881  1.00  0.00     0.044 A 
HETATM    4  C   UNL     1     -11.205  15.080  67.488  1.00  0.00    -0.006 A 
HETATM    5  C   UNL     1     -12.139  13.952  67.163  1.00  0.00     0.013 A 
HETATM    6  C   UNL     1     -12.193  13.401  65.769  1.00  0.00     0.001 A 
HETATM    7  C   UNL     1     -11.312  13.977  64.700  1.00  0.00     0.001 A 
HETATM    8  C   UNL     1     -10.378  15.105  65.025  1.00  0.00     0.016 A 
HETATM    9  C   UNL     1     -10.325  15.657  66.419  1.00  0.00     0.025 A 
HETATM   10  C   UNL     1      -9.391  16.785  66.744  1.00  0.00     0.141 A 
HETATM   11  O   UNL     1      -8.511  17.361  65.675  1.00  0.00    -0.394 OA
ENDROOT
BRANCH   3  12
HETATM   12  C   UNL     1     -12.032  15.055  69.950  1.00  0.00     0.187 C 
HETATM   13  O   UNL     1     -13.138  15.881  70.537  1.00  0.00    -0.172 OA
HETATM   14  N   UNL     1     -11.807  13.653  70.432  1.00  0.00    -0.367 N 
HETATM   15  H   UNL     1     -11.081  13.111  70.047  1.00  0.00     0.161 HD
BRANCH  14  16
HETATM   16  C   UNL     1     -12.687  13.077  71.501  1.00  0.00     0.126 C 
BRANCH  16  17
HETATM   17  C   UNL     1     -12.960  11.602  71.534  1.00  0.00     0.058 C 
BRANCH  17  18
HETATM   18  C   UNL     1     -12.125  10.666  70.711  1.00  0.00    -0.057 A 
HETATM   19  C   UNL     1     -11.445   9.499  71.362  1.00  0.00     0.007 A 
HETATM   20  C   UNL     1     -10.610   8.563  70.539  1.00  0.00     0.001 A 
HETATM   21  C   UNL     1     -10.455   8.795  69.066  1.00  0.00     0.000 A 
HETATM   22  C   UNL     1     -11.135   9.963  68.415  1.00  0.00     0.001 A 
HETATM   23  C   UNL     1     -11.970  10.898  69.237  1.00  0.00     0.007 A 
ENDBRANCH  17  18
ENDBRANCH  16  17
ENDBRANCH  14  16
ENDBRANCH   3  12
BRANCH   1  24
HETATM   24  C   UNL     1      -8.404  18.464  68.462  1.00  0.00     0.030 C 
HETATM   25  C   UNL     1      -7.303  17.479  68.719  1.00  0.00     0.049 C 
HETATM   26  C   UNL     1      -9.505  19.450  68.206  1.00  0.00     0.318 C 
HETATM   27  C   UNL     1      -7.470  19.592  68.787  1.00  0.00     0.038 C 
ENDBRANCH   1  24
TORSDOF 5
ENDMDL
MODEL 5
REMARK VINA RESULT:      -6.4      1.984      7.732
REMARK  5 active torsions:
REMARK  status: ('A' for Active; 'I' for Inactive)
REMARK    1  A    between atoms: C_2  and  N_5 
REMARK    2  A    between atoms: C_7  and  C_8 
REMARK       I    between atoms: C_8  and  N_10 
REMARK    3  A    between atoms: N_10  and  C_11 
REMARK    4  A    between atoms: C_11  and  C_12 
REMARK    5  A    between atoms: C_12  and  C_13 
ROOT
HETATM    1  N   UNL     1      -9.527   8.648  68.337  1.00  0.00    -0.328 N 
HETATM    2  C   UNL     1      -9.844  10.045  67.894  1.00  0.00     0.100 A 
HETATM    3  C   UNL     1     -10.837  10.868  68.661  1.00  0.00     0.044 A 
HETATM    4  C   UNL     1     -11.512  10.294  69.870  1.00  0.00    -0.006 A 
HETATM    5  C   UNL     1     -12.504  11.116  70.637  1.00  0.00     0.013 A 
HETATM    6  C   UNL     1     -13.180  10.542  71.847  1.00  0.00     0.001 A 
HETATM    7  C   UNL     1     -12.862   9.144  72.290  1.00  0.00     0.001 A 
HETATM    8  C   UNL     1     -11.870   8.321  71.523  1.00  0.00     0.016 A 
HETATM    9  C   UNL     1     -11.195   8.896  70.314  1.00  0.00     0.025 A 
HETATM   10  C   UNL     1     -10.202   8.073  69.547  1.00  0.00     0.141 A 
HETATM   11  O   UNL     1      -9.885   6.676  69.990  1.00  0.00    -0.394 OA
ENDROOT
BRANCH   3  12
HETATM   12  C   UNL     1     -11.154  12.266  68.217  1.00  0.00     0.187 C 
HETATM   13  O   UNL     1     -12.113  12.495  67.087  1.00  0.00    -0.172 OA
HETATM   14  N   UNL     1     -10.512  13.434  68.904  1.00  0.00    -0.367 N 
HETATM   15  H   UNL     1      -9.882  13.284  69.646  1.00  0.00     0.161 HD
BRANCH  14  16
HETATM   16  C   UNL     1     -10.829  14.832  68.461  1.00  0.00     0.126 C 
BRANCH  16  17
HETATM   17  C   UNL     1     -12.024  15.544  69.023  1.00  0.00     0.058 C 
BRANCH  17  18
HETATM   18  C   UNL     1     -12.373  15.394  70.474  1.00  0.00    -0.057 A 
HETATM   19  C   UNL     1     -11.668  16.225  71.505  1.00  0.00     0.007 A 
HETATM   20  C   UNL     1     -12.016  16.075  72.956  1.00  0.00     0.001 A 
HETATM   21  C   UNL     1     -13.070  15.094  73.377  1.00  0.00     0.000 A 
HETATM   22  C   UNL     1     -13.775  14.263  72.346  1.00  0.00     0.001 A 
HETATM   23  C   UNL     1     -13.426  14.413  70.895  1.00  0.00     0.007 A 
ENDBRANCH  17  18
ENDBRANCH  16  17
ENDBRANCH  14  16
ENDBRANCH   3  12
BRANCH   1  24
HETATM   24  C   UNL     1      -8.535   7.825  67.570  1.00  0.00     0.030 C 
HETATM   25  C   UNL     1      -9.632   7.341  66.670  1.00  0.00     0.049 C 
HETATM   26  C   UNL     1      -7.437   8.309  68.471  1.00  0.00     0.318 C 
HETATM   27  C   UNL     1      -7.542   7.002  66.804  1.00  0.00     0.038 C 
ENDBRANCH   1  24
TORSDOF 5
ENDMDL
MODEL 6
REMARK VINA RESULT:      -6.4      5.004      9.358
REMARK  5 active torsions:
REMARK  status: ('A' for Active; 'I' for Inactive)
REMARK    1  A    between atoms: C_2  and  N_5 
REMARK    2  A    between atoms: C_7  and  C_8 
REMARK       I    between atoms: C_8  and  N_10 
REMARK    3  A    between atoms: N_10  and  C_11 
REMARK    4  A    between atoms: C_11  and  C_12 
REMARK    5  A    between atoms: C_12  and  C_13 
ROOT
HETATM    1  N   UNL     1     -10.977  13.212  67.046  1.00  0.00    -0.328 N 
HETATM    2  C   UNL     1     -10.419  14.603  66.982  1.00  0.00     0.100 A 
HETATM    3  C   UNL     1     -10.555  15.521  68.161  1.00  0.00     0.044 A 
HETATM    4  C   UNL     1     -11.249  15.047  69.404  1.00  0.00    -0.006 A 
HETATM    5  C   UNL     1     -11.386  15.964  70.583  1.00  0.00     0.013 A 
HETATM    6  C   UNL     1     -12.080  15.491  71.825  1.00  0.00     0.001 A 
HETATM    7  C   UNL     1     -12.638  14.100  71.889  1.00  0.00     0.001 A 
HETATM    8  C   UNL     1     -12.502  13.182  70.710  1.00  0.00     0.016 A 
HETATM    9  C   UNL     1     -11.807  13.656  69.467  1.00  0.00     0.025 A 
HETATM   10  C   UNL     1     -11.671  12.739  68.288  1.00  0.00     0.141 A 
HETATM   11  O   UNL     1     -12.229  11.348  68.352  1.00  0.00    -0.394 OA
ENDROOT
BRANCH   3  12
HETATM   12  C   UNL     1      -9.997  16.912  68.098  1.00  0.00     0.187 C 
HETATM   13  O   UNL     1      -8.649  17.206  68.684  1.00  0.00    -0.172 OA
HETATM   14  N   UNL     1     -10.788  18.008  67.448  1.00  0.00    -0.367 N 
HETATM   15  H   UNL     1     -11.674  17.815  67.063  1.00  0.00     0.161 HD
BRANCH  14  16
HETATM   16  C   UNL     1     -10.230  19.399  67.384  1.00  0.00     0.126 C 
BRANCH  16  17
HETATM   17  C   UNL     1      -9.308  19.787  66.267  1.00  0.00     0.058 C 
BRANCH  17  18
HETATM   18  C   UNL     1      -7.823  19.753  66.474  1.00  0.00    -0.057 A 
HETATM   19  C   UNL     1      -7.004  18.658  65.857  1.00  0.00     0.007 A 
HETATM   20  C   UNL     1      -5.519  18.624  66.064  1.00  0.00     0.001 A 
HETATM   21  C   UNL     1      -4.852  19.685  66.890  1.00  0.00     0.000 A 
HETATM   22  C   UNL     1      -5.671  20.779  67.507  1.00  0.00     0.001 A 
HETATM   23  C   UNL     1      -7.156  20.813  67.300  1.00  0.00     0.007 A 
ENDBRANCH  17  18
ENDBRANCH  16  17
ENDBRANCH  14  16
ENDBRANCH   3  12
BRANCH   1  24
HETATM   24  C   UNL     1     -10.841  12.295  65.867  1.00  0.00     0.030 C 
HETATM   25  C   UNL     1      -9.496  11.854  66.365  1.00  0.00     0.049 C 
HETATM   26  C   UNL     1     -12.185  12.736  65.369  1.00  0.00     0.318 C 
HETATM   27  C   UNL     1     -10.704  11.378  64.688  1.00  0.00     0.038 C 
ENDBRANCH   1  24
TORSDOF 5
ENDMDL
MODEL 7
REMARK VINA RESULT:      -6.2      2.243      4.338
REMARK  5 active torsions:
REMARK  status: ('A' for Active; 'I' for Inactive)
REMARK    1  A    between atoms: C_2  and  N_5 
REMARK    2  A    between atoms: C_7  and  C_8 
REMARK       I    between atoms: C_8  and  N_10 
REMARK    3  A    between atoms: N_10  and  C_11 
REMARK    4  A    between atoms: C_11  and  C_12 
REMARK    5  A    between atoms: C_12  and  C_13 
ROOT
HETATM    1  N   UNL     1     -10.609  13.973  67.676  1.00  0.00    -0.328 N 
HETATM    2  C   UNL     1     -10.132  12.580  67.392  1.00  0.00     0.100 A 
HETATM    3  C   UNL     1     -10.542  11.449  68.288  1.00  0.00     0.044 A 
HETATM    4  C   UNL     1     -11.429  11.713  69.469  1.00  0.00    -0.006 A 
HETATM    5  C   UNL     1     -11.839  10.582  70.366  1.00  0.00     0.013 A 
HETATM    6  C   UNL     1     -12.726  10.846  71.547  1.00  0.00     0.001 A 
HETATM    7  C   UNL     1     -13.202  12.239  71.831  1.00  0.00     0.001 A 
HETATM    8  C   UNL     1     -12.792  13.370  70.934  1.00  0.00     0.016 A 
HETATM    9  C   UNL     1     -11.905  13.106  69.753  1.00  0.00     0.025 A 
HETATM   10  C   UNL     1     -11.495  14.237  68.857  1.00  0.00     0.141 A 
HETATM   11  O   UNL     1     -11.971  15.630  69.141  1.00  0.00    -0.394 OA
ENDROOT
BRANCH   3  12
HETATM   12  C   UNL     1     -10.066  10.056  68.004  1.00  0.00     0.187 C 
HETATM   13  O   UNL     1      -8.600   9.742  68.041  1.00  0.00    -0.172 OA
HETATM   14  N   UNL     1     -11.056   8.976  67.683  1.00  0.00    -0.367 N 
HETATM   15  H   UNL     1     -12.019   9.181  67.659  1.00  0.00     0.161 HD
BRANCH  14  16
HETATM   16  C   UNL     1     -10.580   7.582  67.399  1.00  0.00     0.126 C 
BRANCH  16  17
HETATM   17  C   UNL     1     -10.115   6.704  68.523  1.00  0.00     0.058 C 
BRANCH  17  18
HETATM   18  C   UNL     1     -10.472   7.047  69.939  1.00  0.00    -0.057 A 
HETATM   19  C   UNL     1      -9.463   7.714  70.826  1.00  0.00     0.007 A 
HETATM   20  C   UNL     1      -9.820   8.056  72.242  1.00  0.00     0.001 A 
HETATM   21  C   UNL     1     -11.186   7.733  72.771  1.00  0.00     0.000 A 
HETATM   22  C   UNL     1     -12.195   7.066  71.883  1.00  0.00     0.001 A 
HETATM   23  C   UNL     1     -11.838   6.723  70.467  1.00  0.00     0.007 A 
ENDBRANCH  17  18
ENDBRANCH  16  17
ENDBRANCH  14  16
ENDBRANCH   3  12
BRANCH   1  24
HETATM   24  C   UNL     1     -10.198  15.104  66.779  1.00  0.00     0.030 C 
HETATM   25  C   UNL     1     -11.358  14.808  65.875  1.00  0.00     0.049 C 
HETATM   26  C   UNL     1      -9.038  15.399  67.683  1.00  0.00     0.318 C 
HETATM   27  C   UNL     1      -9.788  16.234  65.883  1.00  0.00     0.038 C 
ENDBRANCH   1  24
TORSDOF 5
ENDMDL
MODEL 8
REMARK VINA RESULT:      -6.2      5.186      9.321
REMARK  5 active torsions:
REMARK  status: ('A' for Active; 'I' for Inactive)
REMARK    1  A    between atoms: C_2  and  N_5 
REMARK    2  A    between atoms: C_7  and  C_8 
REMARK       I    between atoms: C_8  and  N_10 
REMARK    3  A    between atoms: N_10  and  C_11 
REMARK    4  A    between atoms: C_11  and  C_12 
REMARK    5  A    between atoms: C_12  and  C_13 
ROOT
HETATM    1  N   UNL     1     -11.163  13.285  66.698  1.00  0.00    -0.328 N 
HETATM    2  C   UNL     1     -10.633  14.683  66.577  1.00  0.00     0.100 A 
HETATM    3  C   UNL     1     -10.668  15.603  67.762  1.00  0.00     0.044 A 
HETATM    4  C   UNL     1     -11.232  15.125  69.066  1.00  0.00    -0.006 A 
HETATM    5  C   UNL     1     -11.267  16.044  70.251  1.00  0.00     0.013 A 
HETATM    6  C   UNL     1     -11.832  15.566  71.556  1.00  0.00     0.001 A 
HETATM    7  C   UNL     1     -12.361  14.168  71.676  1.00  0.00     0.001 A 
HETATM    8  C   UNL     1     -12.326  13.248  70.491  1.00  0.00     0.016 A 
HETATM    9  C   UNL     1     -11.762  13.726  69.187  1.00  0.00     0.025 A 
HETATM   10  C   UNL     1     -11.727  12.807  68.002  1.00  0.00     0.141 A 
HETATM   11  O   UNL     1     -12.256  11.408  68.123  1.00  0.00    -0.394 OA
ENDROOT
BRANCH   3  12
HETATM   12  C   UNL     1     -10.138  17.001  67.641  1.00  0.00     0.187 C 
HETATM   13  O   UNL     1     -11.084  18.166  67.661  1.00  0.00    -0.172 OA
HETATM   14  N   UNL     1      -8.663  17.235  67.501  1.00  0.00    -0.367 N 
HETATM   15  H   UNL     1      -8.042  16.471  67.489  1.00  0.00     0.161 HD
BRANCH  14  16
HETATM   16  C   UNL     1      -8.134  18.634  67.381  1.00  0.00     0.126 C 
BRANCH  16  17
HETATM   17  C   UNL     1      -7.807  19.421  68.616  1.00  0.00     0.058 C 
BRANCH  17  18
HETATM   18  C   UNL     1      -6.407  19.428  69.152  1.00  0.00    -0.057 A 
HETATM   19  C   UNL     1      -5.680  20.727  69.335  1.00  0.00     0.007 A 
HETATM   20  C   UNL     1      -4.279  20.734  69.872  1.00  0.00     0.001 A 
HETATM   21  C   UNL     1      -3.606  19.441  70.226  1.00  0.00     0.000 A 
HETATM   22  C   UNL     1      -4.333  18.142  70.044  1.00  0.00     0.001 A 
HETATM   23  C   UNL     1      -5.733  18.135  69.507  1.00  0.00     0.007 A 
ENDBRANCH  17  18
ENDBRANCH  16  17
ENDBRANCH  14  16
ENDBRANCH   3  12
BRANCH   1  24
HETATM   24  C   UNL     1     -11.128  12.365  65.513  1.00  0.00     0.030 C 
HETATM   25  C   UNL     1      -9.721  11.975  65.858  1.00  0.00     0.049 C 
HETATM   26  C   UNL     1     -12.534  12.756  65.169  1.00  0.00     0.318 C 
HETATM   27  C   UNL     1     -11.093  11.446  64.329  1.00  0.00     0.038 C 
ENDBRANCH   1  24
TORSDOF 5
ENDMDL
MODEL 9
REMARK VINA RESULT:      -5.9      2.439      4.724
REMARK  5 active torsions:
REMARK  status: ('A' for Active; 'I' for Inactive)
REMARK    1  A    between atoms: C_2  and  N_5 
REMARK    2  A    between atoms: C_7  and  C_8 
REMARK       I    between atoms: C_8  and  N_10 
REMARK    3  A    between atoms: N_10  and  C_11 
REMARK    4  A    between atoms: C_11  and  C_12 
REMARK    5  A    between atoms: C_12  and  C_13 
ROOT
HETATM    1  N   UNL     1     -11.019  12.735  66.981  1.00  0.00    -0.328 N 
HETATM    2  C   UNL     1     -10.523  11.339  66.750  1.00  0.00     0.100 A 
HETATM    3  C   UNL     1     -10.706  10.293  67.809  1.00  0.00     0.044 A 
HETATM    4  C   UNL     1     -11.386  10.643  69.100  1.00  0.00    -0.006 A 
HETATM    5  C   UNL     1     -11.569   9.597  70.159  1.00  0.00     0.013 A 
HETATM    6  C   UNL     1     -12.249   9.947  71.450  1.00  0.00     0.001 A 
HETATM    7  C   UNL     1     -12.745  11.344  71.681  1.00  0.00     0.001 A 
HETATM    8  C   UNL     1     -12.562  12.390  70.621  1.00  0.00     0.016 A 
HETATM    9  C   UNL     1     -11.882  12.040  69.331  1.00  0.00     0.025 A 
HETATM   10  C   UNL     1     -11.699  13.086  68.272  1.00  0.00     0.141 A 
HETATM   11  O   UNL     1     -12.195  14.482  68.503  1.00  0.00    -0.394 OA
ENDROOT
BRANCH   3  12
HETATM   12  C   UNL     1     -10.210   8.896  67.578  1.00  0.00     0.187 C 
HETATM   13  O   UNL     1      -8.750   8.649  67.337  1.00  0.00    -0.172 OA
HETATM   14  N   UNL     1     -11.173   7.746  67.589  1.00  0.00    -0.367 N 
HETATM   15  H   UNL     1     -12.132   7.908  67.747  1.00  0.00     0.161 HD
BRANCH  14  16
HETATM   16  C   UNL     1     -10.677   6.350  67.358  1.00  0.00     0.126 C 
BRANCH  16  17
HETATM   17  C   UNL     1     -10.017   5.594  68.473  1.00  0.00     0.058 C 
BRANCH  17  18
HETATM   18  C   UNL     1     -10.083   6.119  69.876  1.00  0.00    -0.057 A 
HETATM   19  C   UNL     1     -11.310   5.886  70.707  1.00  0.00     0.007 A 
HETATM   20  C   UNL     1     -11.375   6.411  72.111  1.00  0.00     0.001 A 
HETATM   21  C   UNL     1     -10.215   7.169  72.684  1.00  0.00     0.000 A 
HETATM   22  C   UNL     1      -8.988   7.402  71.853  1.00  0.00     0.001 A 
HETATM   23  C   UNL     1      -8.922   6.877  70.449  1.00  0.00     0.007 A 
ENDBRANCH  17  18
ENDBRANCH  16  17
ENDBRANCH  14  16
ENDBRANCH   3  12
BRANCH   1  24
HETATM   24  C   UNL     1     -10.836  13.781  65.922  1.00  0.00     0.030 C 
HETATM   25  C   UNL     1      -9.507  14.147  66.513  1.00  0.00     0.049 C 
HETATM   26  C   UNL     1     -12.165  13.416  65.331  1.00  0.00     0.318 C 
HETATM   27  C   UNL     1     -10.653  14.827  64.863  1.00  0.00     0.038 C 
ENDBRANCH   1  24
TORSDOF 5
ENDMDL
