REMARK  7 active torsions:
REMARK  status: ('A' for Active; 'I' for Inactive)
REMARK    1  A    between atoms: C_5  and  C_6 
REMARK       I    between atoms: C_6  and  N_8 
REMARK    2  A    between atoms: N_8  and  C_9 
REMARK    3  A    between atoms: C_9  and  C_10 
REMARK       I    between atoms: C_10  and  N_12 
REMARK    4  A    between atoms: N_12  and  C_13 
REMARK    5  A    between atoms: C_17  and  N_18 
REMARK    6  A    between atoms: C_26  and  C_27 
REMARK       I    between atoms: C_27  and  N_29 
REMARK    7  A    between atoms: N_29  and  C_30 
ROOT
HETATM    1  C   UNL     1      -3.000   0.000   0.000  1.00  0.00     0.185 C 
HETATM    2  O   UNL     1      -3.750  -1.299   0.000  1.00  0.00    -0.172 OA
HETATM    3  N   UNL     1      -3.750   1.299   0.000  1.00  0.00    -0.360 N 
HETATM    4  H   UNL     1      -3.258   2.152   0.000  1.00  0.00     0.162 HD
ENDROOT
BRANCH   3   5
HETATM    5  C   UNL     1      -5.250   1.299   0.000  1.00  0.00     0.209 C 
BRANCH   5   6
HETATM    6  C   UNL     1      -6.000   2.598   0.000  1.00  0.00     0.173 C 
HETATM    7  O   UNL     1      -5.250   3.897   0.000  1.00  0.00    -0.175 OA
HETATM    8  N   UNL     1      -7.500   2.598   0.000  1.00  0.00    -0.337 N 
HETATM    9  H   UNL     1      -7.992   1.745   0.000  1.00  0.00     0.168 HD
BRANCH   8  10
HETATM   10  C   UNL     1      -8.250   3.897   0.000  1.00  0.00     0.036 A 
HETATM   11  C   UNL     1      -7.500   5.196   0.000  1.00  0.00     0.029 A 
HETATM   12  C   UNL     1      -8.250   6.495   0.000  1.00  0.00     0.004 A 
HETATM   13  C   UNL     1      -9.750   6.495   0.000  1.00  0.00     0.030 A 
HETATM   14  C   UNL     1     -10.500   5.196   0.000  1.00  0.00     0.038 A 
HETATM   15  C   UNL     1      -9.750   3.897   0.000  1.00  0.00     0.059 A 
BRANCH  14  16
HETATM   16  N   UNL     1     -12.000   5.196   0.000  1.00  0.00    -0.329 N 
HETATM   17  C   UNL     1     -12.882   3.983   0.000  1.00  0.00     0.131 A 
HETATM   18  C   UNL     1     -14.308   4.446   0.000  1.00  0.00     0.028 A 
HETATM   19  C   UNL     1     -14.308   5.946   0.000  1.00  0.00     0.089 A 
HETATM   20  C   UNL     1     -12.882   6.410   0.000  1.00  0.00     0.158 A 
HETATM   21  O   UNL     1     -12.418   7.836   0.000  1.00  0.00    -0.177 OA
ENDBRANCH  14  16
ENDBRANCH   8  10
ENDBRANCH   5   6
ENDBRANCH   3   5
BRANCH   1  22
HETATM   22  C   UNL     1      -1.500   0.000   0.000  1.00  0.00     0.018 A 
HETATM   23  C   UNL     1      -0.750  -1.299   0.000  1.00  0.00     0.016 A 
HETATM   24  C   UNL     1       0.750  -1.299   0.000  1.00  0.00     0.009 A 
HETATM   25  C   UNL     1       1.500   0.000   0.000  1.00  0.00    -0.047 A 
HETATM   26  C   UNL     1       3.000   0.000   0.000  1.00  0.00     0.049 C 
HETATM   27  C   UNL     1       0.750   1.299   0.000  1.00  0.00     0.024 A 
HETATM   28  C   UNL     1      -0.750   1.299   0.000  1.00  0.00     0.032 A 
BRANCH  27  29
HETATM   29  C   UNL     1       1.500   2.598   0.000  1.00  0.00     0.185 C 
HETATM   30  O   UNL     1       3.000   2.598   0.000  1.00  0.00    -0.172 OA
HETATM   31  N   UNL     1       0.750   3.897   0.000  1.00  0.00    -0.364 N 
HETATM   32  H   UNL     1      -0.234   3.897   0.000  1.00  0.00     0.162 HD
BRANCH  31  33
HETATM   33  C   UNL     1       1.500   5.196   0.000  1.00  0.00     0.075 C 
HETATM   34  C   UNL     1       0.750   6.495   0.000  1.00  0.00     0.032 C 
HETATM   35  C   UNL     1       3.000   5.196   0.000  1.00  0.00     0.032 C 
ENDBRANCH  31  33
ENDBRANCH  27  29
ENDBRANCH   1  22
TORSDOF 7
